MODEL 1
REMARK VINA RESULT:    -5.497      0.000      0.000
REMARK INTER + INTRA:          -5.885
REMARK INTER:                  -5.818
REMARK INTRA:                  -0.067
REMARK UNBOUND:                -0.067
REMARK  1 active torsions:
REMARK  status: ('A' for Active; 'I' for Inactive)
REMARK    1  A    between atoms: C5_5  and  C6_6 
ROOT
HETATM    1  C1  GAL A1400      60.165  49.408  24.577  1.00 48.33     0.303 C 
HETATM    2  C2  GAL A1400      60.328  50.060  23.216  1.00 47.80     0.244 C 
HETATM    3  C3  GAL A1400      59.497  51.328  23.125  1.00 46.81     0.220 C 
HETATM    4  C4  GAL A1400      58.087  51.089  23.643  1.00 48.11     0.215 C 
HETATM    5  C5  GAL A1400      58.115  50.535  25.073  1.00 48.75     0.184 C 
HETATM    6  O1  GAL A1400      60.726  48.124  24.409  1.00 48.20    -0.187 OA
HETATM    7  O2  GAL A1400      61.738  50.187  22.922  1.00 46.58    -0.215 OA
HETATM    8  O3  GAL A1400      59.508  51.839  21.790  1.00 44.98    -0.218 OA
HETATM    9  O4  GAL A1400      57.401  50.114  22.863  1.00 47.57    -0.218 OA
HETATM   10  O5  GAL A1400      58.821  49.267  24.992  1.00 49.02    -0.324 OA
ENDROOT
BRANCH   5  11
HETATM   11  C6  GAL A1400      56.723  50.335  25.618  1.00 49.05     0.214 C 
HETATM   12  O6  GAL A1400      56.337  48.973  25.819  1.00 50.06    -0.218 OA
ENDBRANCH   5  11
TORSDOF 1
ENDMDL
MODEL 2
REMARK VINA RESULT:    -5.198      1.014      2.656
REMARK INTER + INTRA:          -5.569
REMARK INTER:                  -5.510
REMARK INTRA:                  -0.059
REMARK UNBOUND:                -0.067
REMARK  1 active torsions:
REMARK  status: ('A' for Active; 'I' for Inactive)
REMARK    1  A    between atoms: C5_5  and  C6_6 
ROOT
HETATM    1  C1  GAL A1400      59.006  51.304  22.868  1.00 48.33     0.303 C 
HETATM    2  C2  GAL A1400      60.191  50.406  23.174  1.00 47.80     0.244 C 
HETATM    3  C3  GAL A1400      59.727  49.085  23.761  1.00 46.81     0.220 C 
HETATM    4  C4  GAL A1400      58.696  49.312  24.857  1.00 48.11     0.215 C 
HETATM    5  C5  GAL A1400      57.517  50.142  24.335  1.00 48.75     0.184 C 
HETATM    6  O1  GAL A1400      59.587  52.567  22.631  1.00 48.20    -0.187 OA
HETATM    7  O2  GAL A1400      61.039  50.333  22.005  1.00 46.58    -0.215 OA
HETATM    8  O3  GAL A1400      60.846  48.319  24.216  1.00 44.98    -0.218 OA
HETATM    9  O4  GAL A1400      59.242  50.055  25.943  1.00 47.57    -0.218 OA
HETATM   10  O5  GAL A1400      58.080  51.420  23.930  1.00 49.02    -0.324 OA
ENDROOT
BRANCH   5  11
HETATM   11  C6  GAL A1400      56.463  50.339  25.396  1.00 49.05     0.214 C 
HETATM   12  O6  GAL A1400      56.012  49.142  26.035  1.00 50.06    -0.218 OA
ENDBRANCH   5  11
TORSDOF 1
ENDMDL
MODEL 3
REMARK VINA RESULT:    -5.158      1.818      2.647
REMARK INTER + INTRA:          -5.527
REMARK INTER:                  -5.482
REMARK INTRA:                  -0.044
REMARK UNBOUND:                -0.067
REMARK  1 active torsions:
REMARK  status: ('A' for Active; 'I' for Inactive)
REMARK    1  A    between atoms: C5_5  and  C6_6 
ROOT
HETATM    1  C1  GAL A1400      59.574  51.494  25.463  1.00 48.33     0.303 C 
HETATM    2  C2  GAL A1400      60.890  51.465  24.708  1.00 47.80     0.244 C 
HETATM    3  C3  GAL A1400      60.736  50.727  23.389  1.00 46.81     0.220 C 
HETATM    4  C4  GAL A1400      59.991  49.415  23.587  1.00 48.11     0.215 C 
HETATM    5  C5  GAL A1400      58.635  49.652  24.262  1.00 48.75     0.184 C 
HETATM    6  O1  GAL A1400      59.934  51.920  26.759  1.00 48.20    -0.187 OA
HETATM    7  O2  GAL A1400      61.424  52.807  24.640  1.00 46.58    -0.215 OA
HETATM    8  O3  GAL A1400      62.010  50.542  22.768  1.00 44.98    -0.218 OA
HETATM    9  O4  GAL A1400      60.705  48.533  24.449  1.00 47.57    -0.218 OA
HETATM   10  O5  GAL A1400      58.934  50.237  25.558  1.00 49.02    -0.324 OA
ENDROOT
BRANCH   5  11
HETATM   11  C6  GAL A1400      57.863  48.366  24.424  1.00 49.05     0.214 C 
HETATM   12  O6  GAL A1400      56.912  48.357  25.491  1.00 50.06    -0.218 OA
ENDBRANCH   5  11
TORSDOF 1
ENDMDL
MODEL 4
REMARK VINA RESULT:    -5.132      8.577      9.578
REMARK INTER + INTRA:          -5.499
REMARK INTER:                  -5.457
REMARK INTRA:                  -0.042
REMARK UNBOUND:                -0.067
REMARK  1 active torsions:
REMARK  status: ('A' for Active; 'I' for Inactive)
REMARK    1  A    between atoms: C5_5  and  C6_6 
ROOT
HETATM    1  C1  GAL A1400      60.715  42.148  19.490  1.00 48.33     0.303 C 
HETATM    2  C2  GAL A1400      59.681  42.169  20.601  1.00 47.80     0.244 C 
HETATM    3  C3  GAL A1400      58.302  41.836  20.059  1.00 46.81     0.220 C 
HETATM    4  C4  GAL A1400      58.012  42.629  18.793  1.00 48.11     0.215 C 
HETATM    5  C5  GAL A1400      59.104  42.397  17.740  1.00 48.75     0.184 C 
HETATM    6  O1  GAL A1400      61.847  42.761  20.066  1.00 48.20    -0.187 OA
HETATM    7  O2  GAL A1400      60.157  41.360  21.701  1.00 46.58    -0.215 OA
HETATM    8  O3  GAL A1400      57.307  42.034  21.066  1.00 44.98    -0.218 OA
HETATM    9  O4  GAL A1400      58.007  44.031  19.044  1.00 47.57    -0.218 OA
HETATM   10  O5  GAL A1400      60.339  42.877  18.338  1.00 49.02    -0.324 OA
ENDROOT
BRANCH   5  11
HETATM   11  C6  GAL A1400      58.808  43.141  16.462  1.00 49.05     0.214 C 
HETATM   12  O6  GAL A1400      59.593  44.315  16.244  1.00 50.06    -0.218 OA
ENDBRANCH   5  11
TORSDOF 1
ENDMDL
MODEL 5
REMARK VINA RESULT:    -5.097      1.722      3.756
REMARK INTER + INTRA:          -5.462
REMARK INTER:                  -5.430
REMARK INTRA:                  -0.031
REMARK UNBOUND:                -0.067
REMARK  1 active torsions:
REMARK  status: ('A' for Active; 'I' for Inactive)
REMARK    1  A    between atoms: C5_5  and  C6_6 
ROOT
HETATM    1  C1  GAL A1400      59.756  49.001  24.095  1.00 48.33     0.303 C 
HETATM    2  C2  GAL A1400      58.464  48.911  24.886  1.00 47.80     0.244 C 
HETATM    3  C3  GAL A1400      57.745  50.249  24.894  1.00 46.81     0.220 C 
HETATM    4  C4  GAL A1400      58.709  51.380  25.220  1.00 48.11     0.215 C 
HETATM    5  C5  GAL A1400      59.896  51.384  24.248  1.00 48.75     0.184 C 
HETATM    6  O1  GAL A1400      60.443  47.815  24.427  1.00 48.20    -0.187 OA
HETATM    7  O2  GAL A1400      57.706  47.771  24.419  1.00 46.58    -0.215 OA
HETATM    8  O3  GAL A1400      56.628  50.211  25.786  1.00 44.98    -0.218 OA
HETATM    9  O4  GAL A1400      59.273  51.229  26.520  1.00 47.57    -0.218 OA
HETATM   10  O5  GAL A1400      60.567  50.108  24.437  1.00 49.02    -0.324 OA
ENDROOT
BRANCH   5  11
HETATM   11  C6  GAL A1400      60.839  52.527  24.529  1.00 49.05     0.214 C 
HETATM   12  O6  GAL A1400      61.935  52.651  23.619  1.00 50.06    -0.218 OA
ENDBRANCH   5  11
TORSDOF 1
ENDMDL
MODEL 6
REMARK VINA RESULT:    -5.089      8.784      9.713
REMARK INTER + INTRA:          -5.454
REMARK INTER:                  -5.392
REMARK INTRA:                  -0.061
REMARK UNBOUND:                -0.067
REMARK  1 active torsions:
REMARK  status: ('A' for Active; 'I' for Inactive)
REMARK    1  A    between atoms: C5_5  and  C6_6 
ROOT
HETATM    1  C1  GAL A1400      60.093  41.716  20.265  1.00 48.33     0.303 C 
HETATM    2  C2  GAL A1400      58.612  41.476  20.496  1.00 47.80     0.244 C 
HETATM    3  C3  GAL A1400      57.860  41.445  19.177  1.00 46.81     0.220 C 
HETATM    4  C4  GAL A1400      58.269  42.614  18.294  1.00 48.11     0.215 C 
HETATM    5  C5  GAL A1400      59.788  42.632  18.077  1.00 48.75     0.184 C 
HETATM    6  O1  GAL A1400      60.593  42.021  21.548  1.00 48.20    -0.187 OA
HETATM    7  O2  GAL A1400      58.451  40.327  21.360  1.00 46.58    -0.215 OA
HETATM    8  O3  GAL A1400      56.449  41.402  19.406  1.00 44.98    -0.218 OA
HETATM    9  O4  GAL A1400      57.949  43.864  18.899  1.00 47.57    -0.218 OA
HETATM   10  O5  GAL A1400      60.374  42.795  19.397  1.00 49.02    -0.324 OA
ENDROOT
BRANCH   5  11
HETATM   11  C6  GAL A1400      60.205  43.759  17.166  1.00 49.05     0.214 C 
HETATM   12  O6  GAL A1400      60.914  44.825  17.802  1.00 50.06    -0.218 OA
ENDBRANCH   5  11
TORSDOF 1
ENDMDL
MODEL 7
REMARK VINA RESULT:    -5.010      1.421      2.348
REMARK INTER + INTRA:          -5.370
REMARK INTER:                  -5.312
REMARK INTRA:                  -0.058
REMARK UNBOUND:                -0.067
REMARK  1 active torsions:
REMARK  status: ('A' for Active; 'I' for Inactive)
REMARK    1  A    between atoms: C5_5  and  C6_6 
ROOT
HETATM    1  C1  GAL A1400      58.489  48.994  24.777  1.00 48.33     0.303 C 
HETATM    2  C2  GAL A1400      59.782  48.880  23.989  1.00 47.80     0.244 C 
HETATM    3  C3  GAL A1400      60.539  50.197  24.007  1.00 46.81     0.220 C 
HETATM    4  C4  GAL A1400      59.608  51.360  23.697  1.00 48.11     0.215 C 
HETATM    5  C5  GAL A1400      58.418  51.381  24.664  1.00 48.75     0.184 C 
HETATM    6  O1  GAL A1400      57.770  47.834  24.421  1.00 48.20    -0.187 OA
HETATM    7  O2  GAL A1400      60.504  47.711  24.439  1.00 46.58    -0.215 OA
HETATM    8  O3  GAL A1400      61.658  50.142  23.119  1.00 44.98    -0.218 OA
HETATM    9  O4  GAL A1400      59.047  51.248  22.393  1.00 47.57    -0.218 OA
HETATM   10  O5  GAL A1400      57.712  50.129  24.451  1.00 49.02    -0.324 OA
ENDROOT
BRANCH   5  11
HETATM   11  C6  GAL A1400      57.509  52.556  24.399  1.00 49.05     0.214 C 
HETATM   12  O6  GAL A1400      56.110  52.269  24.456  1.00 50.06    -0.218 OA
ENDBRANCH   5  11
TORSDOF 1
ENDMDL
MODEL 8
REMARK VINA RESULT:    -4.881      1.513      3.701
REMARK INTER + INTRA:          -5.233
REMARK INTER:                  -5.197
REMARK INTRA:                  -0.036
REMARK UNBOUND:                -0.067
REMARK  1 active torsions:
REMARK  status: ('A' for Active; 'I' for Inactive)
REMARK    1  A    between atoms: C5_5  and  C6_6 
ROOT
HETATM    1  C1  GAL A1400      59.538  48.673  23.631  1.00 48.33     0.303 C 
HETATM    2  C2  GAL A1400      58.321  49.000  24.477  1.00 47.80     0.244 C 
HETATM    3  C3  GAL A1400      57.569  50.187  23.900  1.00 46.81     0.220 C 
HETATM    4  C4  GAL A1400      58.526  51.317  23.551  1.00 48.11     0.215 C 
HETATM    5  C5  GAL A1400      59.625  50.828  22.599  1.00 48.75     0.184 C 
HETATM    6  O1  GAL A1400      60.282  47.784  24.435  1.00 48.20    -0.187 OA
HETATM    7  O2  GAL A1400      57.557  47.791  24.690  1.00 46.58    -0.215 OA
HETATM    8  O3  GAL A1400      56.534  50.606  24.793  1.00 44.98    -0.218 OA
HETATM    9  O4  GAL A1400      59.203  51.805  24.706  1.00 47.57    -0.218 OA
HETATM   10  O5  GAL A1400      60.344  49.792  23.322  1.00 49.02    -0.324 OA
ENDROOT
BRANCH   5  11
HETATM   11  C6  GAL A1400      60.558  51.947  22.207  1.00 49.05     0.214 C 
HETATM   12  O6  GAL A1400      60.205  52.643  21.009  1.00 50.06    -0.218 OA
ENDBRANCH   5  11
TORSDOF 1
ENDMDL
MODEL 9
REMARK VINA RESULT:    -4.878      1.735      3.977
REMARK INTER + INTRA:          -5.230
REMARK INTER:                  -5.203
REMARK INTRA:                  -0.027
REMARK UNBOUND:                -0.067
REMARK  1 active torsions:
REMARK  status: ('A' for Active; 'I' for Inactive)
REMARK    1  A    between atoms: C5_5  and  C6_6 
ROOT
HETATM    1  C1  GAL A1400      57.871  50.328  24.265  1.00 48.33     0.303 C 
HETATM    2  C2  GAL A1400      58.478  48.944  24.126  1.00 47.80     0.244 C 
HETATM    3  C3  GAL A1400      59.892  48.919  24.679  1.00 46.81     0.220 C 
HETATM    4  C4  GAL A1400      60.693  50.109  24.171  1.00 48.11     0.215 C 
HETATM    5  C5  GAL A1400      59.981  51.428  24.500  1.00 48.75     0.184 C 
HETATM    6  O1  GAL A1400      56.718  50.278  23.454  1.00 48.20    -0.187 OA
HETATM    7  O2  GAL A1400      57.555  47.970  24.664  1.00 46.58    -0.215 OA
HETATM    8  O3  GAL A1400      60.524  47.671  24.383  1.00 44.98    -0.218 OA
HETATM    9  O4  GAL A1400      60.826  50.083  22.753  1.00 47.57    -0.218 OA
HETATM   10  O5  GAL A1400      58.705  51.373  23.806  1.00 49.02    -0.324 OA
ENDROOT
BRANCH   5  11
HETATM   11  C6  GAL A1400      60.785  52.620  24.043  1.00 49.05     0.214 C 
HETATM   12  O6  GAL A1400      60.760  53.745  24.924  1.00 50.06    -0.218 OA
ENDBRANCH   5  11
TORSDOF 1
ENDMDL
