REMARK  1 active torsions:
REMARK  status: ('A' for Active; 'I' for Inactive)
REMARK    1  A    between atoms: C5_5  and  C6_6 
ROOT
HETATM    1  C1  GAL A1400      -3.543  27.130  76.622  1.00 48.33     0.303 C 
HETATM    2  C2  GAL A1400      -3.390  25.661  76.972  1.00 47.80     0.244 C 
HETATM    3  C3  GAL A1400      -3.364  24.809  75.715  1.00 46.81     0.220 C 
HETATM    4  C4  GAL A1400      -4.485  25.209  74.767  1.00 48.11     0.215 C 
HETATM    5  C5  GAL A1400      -4.414  26.705  74.436  1.00 48.75     0.184 C 
HETATM    6  O1  GAL A1400      -3.856  27.743  77.853  1.00 48.20    -0.187 OA
HETATM    7  O2  GAL A1400      -2.276  25.508  77.881  1.00 46.58    -0.215 OA
HETATM    8  O3  GAL A1400      -3.404  23.420  76.051  1.00 44.98    -0.218 OA
HETATM    9  O4  GAL A1400      -5.766  25.002  75.355  1.00 47.57    -0.218 OA
HETATM   10  O5  GAL A1400      -4.582  27.399  75.702  1.00 49.02    -0.324 OA
ENDROOT
BRANCH   5  11
HETATM   11  C6  GAL A1400      -5.492  27.109  73.461  1.00 49.05     0.214 C 
HETATM   12  O6  GAL A1400      -6.118  26.030  72.763  1.00 50.06    -0.218 OA
ENDBRANCH   5  11
TORSDOF 1
