MODEL 1
REMARK VINA RESULT:   -10.264      0.000      0.000
REMARK INTER + INTRA:         -18.559
REMARK INTER:                 -16.864
REMARK INTRA:                  -1.695
REMARK UNBOUND:                -1.695
REMARK  11 active torsions:
REMARK  status: ('A' for Active; 'I' for Inactive)
REMARK    1  A    between atoms: PA_1  and  O5B_4 
REMARK    2  A    between atoms: PA_1  and  O3_23 
REMARK    3  A    between atoms: O5B_4  and  C5B_5 
REMARK    4  A    between atoms: C5B_5  and  C4B_6 
REMARK    5  A    between atoms: C1B_12  and  N9A_13 
REMARK    6  A    between atoms: O3_23  and  PN_24 
REMARK    7  A    between atoms: PN_24  and  O5D_27 
REMARK    8  A    between atoms: O5D_27  and  C5D_28 
REMARK    9  A    between atoms: C5D_28  and  C4D_29 
REMARK   10  A    between atoms: C1D_35  and  N1N_36 
REMARK   11  A    between atoms: C3N_38  and  C7N_39 
ROOT
HETATM    1  PA  NAD C 850      15.064   3.976  31.916  1.00 24.56     0.418 P 
HETATM    2  O1A NAD C 850      16.030   5.089  32.163  1.00 22.36    -0.624 OA
HETATM    3  O2A NAD C 850      13.572   4.203  32.091  1.00 26.29    -0.624 OA
ENDROOT
BRANCH   1   4
HETATM    4  O5B NAD C 850      15.543   2.758  32.854  1.00 23.36    -0.268 OA
BRANCH   4   5
HETATM    5  C5B NAD C 850      15.402   1.398  32.423  1.00 22.26     0.187 C 
BRANCH   5   6
HETATM    6  C4B NAD C 850      14.285   0.740  33.241  1.00 22.35     0.181 C 
HETATM    7  O4B NAD C 850      13.807  -0.401  32.515  1.00 21.04    -0.331 OA
HETATM    8  C1B NAD C 850      13.929  -1.544  33.355  1.00 20.56     0.241 C 
HETATM    9  C2B NAD C 850      15.073  -1.221  34.306  1.00 23.20     0.234 C 
HETATM   10  C3B NAD C 850      14.798   0.232  34.592  1.00 22.70     0.216 C 
HETATM   11  O2B NAD C 850      15.062  -2.052  35.472  1.00 25.01    -0.216 OA
HETATM   12  O3B NAD C 850      13.766   0.317  35.591  1.00 23.21    -0.218 OA
BRANCH   8  13
HETATM   13  N9A NAD C 850      14.184  -2.819  32.661  1.00 21.64    -0.270 N 
HETATM   14  C8A NAD C 850      15.319  -3.225  32.059  1.00 21.89     0.182 A 
HETATM   15  N7A NAD C 850      15.144  -4.480  31.584  1.00 20.90    -0.219 NA
HETATM   16  C5A NAD C 850      13.881  -4.851  31.907  1.00 21.50     0.155 A 
HETATM   17  C6A NAD C 850      13.130  -5.998  31.696  1.00 21.09     0.206 A 
HETATM   18  C4A NAD C 850      13.289  -3.802  32.597  1.00 20.71     0.170 A 
HETATM   19  N6A NAD C 850      13.661  -7.060  31.038  1.00 21.85    -0.125 N 
HETATM   20  N1A NAD C 850      11.861  -6.057  32.177  1.00 20.90    -0.202 NA
HETATM   21  C2A NAD C 850      11.305  -5.030  32.836  1.00 21.12     0.202 A 
HETATM   22  N3A NAD C 850      12.007  -3.905  33.060  1.00 21.76    -0.205 NA
ENDBRANCH   8  13
ENDBRANCH   5   6
ENDBRANCH   4   5
ENDBRANCH   1   4
BRANCH   1  23
HETATM   23  O3  NAD C 850      15.330   3.455  30.417  1.00 23.40    -0.180 OA
BRANCH  23  24
HETATM   24  PN  NAD C 850      15.028   4.131  28.981  1.00 25.31     0.418 P 
HETATM   25  O1N NAD C 850      14.946   5.620  29.223  1.00 24.39    -0.624 OA
HETATM   26  O2N NAD C 850      13.924   3.411  28.235  1.00 26.78    -0.624 OA
BRANCH  24  27
HETATM   27  O5D NAD C 850      16.407   3.880  28.209  1.00 23.84    -0.268 OA
BRANCH  27  28
HETATM   28  C5D NAD C 850      17.424   2.989  28.665  1.00 22.34     0.187 C 
BRANCH  28  29
HETATM   29  C4D NAD C 850      18.698   3.824  28.771  1.00 22.30     0.181 C 
HETATM   30  O4D NAD C 850      18.672   4.899  27.817  1.00 23.19    -0.331 OA
HETATM   31  C1D NAD C 850      18.871   6.135  28.523  1.00 23.40     0.239 C 
HETATM   32  C2D NAD C 850      18.350   5.891  29.933  1.00 22.04     0.234 C 
HETATM   33  C3D NAD C 850      18.853   4.466  30.141  1.00 22.70     0.216 C 
HETATM   34  O2D NAD C 850      18.910   6.803  30.884  1.00 21.71    -0.216 OA
HETATM   35  O3D NAD C 850      20.248   4.489  30.477  1.00 20.97    -0.218 OA
BRANCH  31  36
HETATM   36  N1N NAD C 850      18.315   7.311  27.850  1.00 23.23    -0.301 N 
HETATM   37  C2N NAD C 850      18.847   7.778  26.697  1.00 23.13     0.083 A 
HETATM   38  C3N NAD C 850      18.299   8.902  26.068  1.00 22.92     0.077 A 
HETATM   39  C4N NAD C 850      17.199   9.520  26.667  1.00 23.16     0.008 A 
HETATM   40  C5N NAD C 850      16.665   9.017  27.857  1.00 22.68     0.019 A 
HETATM   41  C6N NAD C 850      17.246   7.890  28.435  1.00 21.96     0.078 A 
BRANCH  38  42
HETATM   42  C7N NAD C 850      18.893   9.457  24.786  1.00 22.26     0.298 C 
HETATM   43  O7N NAD C 850      19.837   8.901  24.241  1.00 22.02    -0.264 OA
HETATM   44  N7N NAD C 850      18.364  10.547  24.246  1.00 22.30    -0.102 N 
ENDBRANCH  38  42
ENDBRANCH  31  36
ENDBRANCH  28  29
ENDBRANCH  27  28
ENDBRANCH  24  27
ENDBRANCH  23  24
ENDBRANCH   1  23
TORSDOF 11
ENDMDL
MODEL 2
REMARK VINA RESULT:    -9.966      5.612      7.286
REMARK INTER + INTRA:         -18.070
REMARK INTER:                 -16.060
REMARK INTRA:                  -2.010
REMARK UNBOUND:                -1.695
REMARK  11 active torsions:
REMARK  status: ('A' for Active; 'I' for Inactive)
REMARK    1  A    between atoms: PA_1  and  O5B_4 
REMARK    2  A    between atoms: PA_1  and  O3_23 
REMARK    3  A    between atoms: O5B_4  and  C5B_5 
REMARK    4  A    between atoms: C5B_5  and  C4B_6 
REMARK    5  A    between atoms: C1B_12  and  N9A_13 
REMARK    6  A    between atoms: O3_23  and  PN_24 
REMARK    7  A    between atoms: PN_24  and  O5D_27 
REMARK    8  A    between atoms: O5D_27  and  C5D_28 
REMARK    9  A    between atoms: C5D_28  and  C4D_29 
REMARK   10  A    between atoms: C1D_35  and  N1N_36 
REMARK   11  A    between atoms: C3N_38  and  C7N_39 
ROOT
HETATM    1  PA  NAD C 850      15.252   3.255  31.549  1.00 24.56     0.418 P 
HETATM    2  O1A NAD C 850      14.930   4.236  32.629  1.00 22.36    -0.624 OA
HETATM    3  O2A NAD C 850      14.293   2.121  31.233  1.00 26.29    -0.624 OA
ENDROOT
BRANCH   1   4
HETATM    4  O5B NAD C 850      16.702   2.658  31.911  1.00 23.36    -0.268 OA
BRANCH   4   5
HETATM    5  C5B NAD C 850      17.775   3.521  32.310  1.00 22.26     0.187 C 
BRANCH   5   6
HETATM    6  C4B NAD C 850      18.764   3.643  31.145  1.00 22.35     0.181 C 
HETATM    7  O4B NAD C 850      20.084   3.780  31.687  1.00 21.04    -0.331 OA
HETATM    8  C1B NAD C 850      20.895   2.741  31.147  1.00 20.56     0.241 C 
HETATM    9  C2B NAD C 850      19.930   1.609  30.823  1.00 23.20     0.234 C 
HETATM   10  C3B NAD C 850      18.763   2.385  30.270  1.00 22.70     0.216 C 
HETATM   11  O2B NAD C 850      20.487   0.667  29.899  1.00 25.01    -0.216 OA
HETATM   12  O3B NAD C 850      19.041   2.720  28.899  1.00 23.21    -0.218 OA
BRANCH   8  13
HETATM   13  N9A NAD C 850      21.975   2.257  32.025  1.00 21.64    -0.270 N 
HETATM   14  C8A NAD C 850      21.931   2.036  33.354  1.00 21.89     0.182 A 
HETATM   15  N7A NAD C 850      23.127   1.552  33.762  1.00 20.90    -0.219 NA
HETATM   16  C5A NAD C 850      23.915   1.469  32.661  1.00 21.50     0.155 A 
HETATM   17  C6A NAD C 850      25.221   1.058  32.441  1.00 21.09     0.206 A 
HETATM   18  C4A NAD C 850      23.176   1.904  31.570  1.00 20.71     0.170 A 
HETATM   19  N6A NAD C 850      25.988   0.610  33.468  1.00 21.85    -0.125 N 
HETATM   20  N1A NAD C 850      25.720   1.083  31.177  1.00 20.90    -0.202 NA
HETATM   21  C2A NAD C 850      24.991   1.513  30.137  1.00 21.12     0.202 A 
HETATM   22  N3A NAD C 850      23.720   1.916  30.317  1.00 21.76    -0.205 NA
ENDBRANCH   8  13
ENDBRANCH   5   6
ENDBRANCH   4   5
ENDBRANCH   1   4
BRANCH   1  23
HETATM   23  O3  NAD C 850      15.495   4.108  30.206  1.00 23.40    -0.180 OA
BRANCH  23  24
HETATM   24  PN  NAD C 850      14.485   4.558  29.027  1.00 25.31     0.418 P 
HETATM   25  O1N NAD C 850      13.134   4.747  29.677  1.00 24.39    -0.624 OA
HETATM   26  O2N NAD C 850      14.631   3.693  27.793  1.00 26.78    -0.624 OA
BRANCH  24  27
HETATM   27  O5D NAD C 850      15.024   6.025  28.684  1.00 23.84    -0.268 OA
BRANCH  27  28
HETATM   28  C5D NAD C 850      16.260   6.286  28.022  1.00 22.34     0.187 C 
BRANCH  28  29
HETATM   29  C4D NAD C 850      17.326   6.308  29.115  1.00 22.30     0.181 C 
HETATM   30  O4D NAD C 850      18.637   6.398  28.533  1.00 23.19    -0.331 OA
HETATM   31  C1D NAD C 850      19.307   7.536  29.101  1.00 23.40     0.239 C 
HETATM   32  C2D NAD C 850      18.203   8.505  29.502  1.00 22.04     0.234 C 
HETATM   33  C3D NAD C 850      17.180   7.508  30.037  1.00 22.70     0.216 C 
HETATM   34  O2D NAD C 850      18.631   9.430  30.508  1.00 21.71    -0.216 OA
HETATM   35  O3D NAD C 850      17.544   7.108  31.366  1.00 20.97    -0.218 OA
BRANCH  31  36
HETATM   36  N1N NAD C 850      20.356   8.105  28.252  1.00 23.23    -0.301 N 
HETATM   37  C2N NAD C 850      21.455   8.685  28.786  1.00 23.13     0.083 A 
HETATM   38  C3N NAD C 850      22.448   9.221  27.956  1.00 22.92     0.077 A 
HETATM   39  C4N NAD C 850      22.265   9.139  26.575  1.00 23.16     0.008 A 
HETATM   40  C5N NAD C 850      21.122   8.531  26.046  1.00 22.68     0.019 A 
HETATM   41  C6N NAD C 850      20.170   8.008  26.919  1.00 21.96     0.078 A 
BRANCH  38  42
HETATM   42  C7N NAD C 850      23.678   9.897  28.534  1.00 22.26     0.298 C 
HETATM   43  O7N NAD C 850      24.561  10.323  27.802  1.00 22.02    -0.264 OA
HETATM   44  N7N NAD C 850      23.781  10.040  29.848  1.00 22.30    -0.102 N 
ENDBRANCH  38  42
ENDBRANCH  31  36
ENDBRANCH  28  29
ENDBRANCH  27  28
ENDBRANCH  24  27
ENDBRANCH  23  24
ENDBRANCH   1  23
TORSDOF 11
ENDMDL
MODEL 3
REMARK VINA RESULT:    -9.895      2.433     11.931
REMARK INTER + INTRA:         -17.953
REMARK INTER:                 -16.091
REMARK INTRA:                  -1.862
REMARK UNBOUND:                -1.695
REMARK  11 active torsions:
REMARK  status: ('A' for Active; 'I' for Inactive)
REMARK    1  A    between atoms: PA_1  and  O5B_4 
REMARK    2  A    between atoms: PA_1  and  O3_23 
REMARK    3  A    between atoms: O5B_4  and  C5B_5 
REMARK    4  A    between atoms: C5B_5  and  C4B_6 
REMARK    5  A    between atoms: C1B_12  and  N9A_13 
REMARK    6  A    between atoms: O3_23  and  PN_24 
REMARK    7  A    between atoms: PN_24  and  O5D_27 
REMARK    8  A    between atoms: O5D_27  and  C5D_28 
REMARK    9  A    between atoms: C5D_28  and  C4D_29 
REMARK   10  A    between atoms: C1D_35  and  N1N_36 
REMARK   11  A    between atoms: C3N_38  and  C7N_39 
ROOT
HETATM    1  PA  NAD C 850      18.548   3.266  30.470  1.00 24.56     0.418 P 
HETATM    2  O1A NAD C 850      19.722   3.830  31.202  1.00 22.36    -0.624 OA
HETATM    3  O2A NAD C 850      18.713   2.719  29.063  1.00 26.29    -0.624 OA
ENDROOT
BRANCH   1   4
HETATM    4  O5B NAD C 850      17.425   4.419  30.479  1.00 23.36    -0.268 OA
BRANCH   4   5
HETATM    5  C5B NAD C 850      16.482   4.537  29.405  1.00 22.26     0.187 C 
BRANCH   5   6
HETATM    6  C4B NAD C 850      15.742   5.871  29.549  1.00 22.35     0.181 C 
HETATM    7  O4B NAD C 850      16.679   6.860  29.997  1.00 21.04    -0.331 OA
HETATM    8  C1B NAD C 850      16.671   7.934  29.062  1.00 20.56     0.241 C 
HETATM    9  C2B NAD C 850      16.250   7.308  27.739  1.00 23.20     0.234 C 
HETATM   10  C3B NAD C 850      15.182   6.354  28.207  1.00 22.70     0.216 C 
HETATM   11  O2B NAD C 850      15.782   8.284  26.801  1.00 25.01    -0.216 OA
HETATM   12  O3B NAD C 850      13.961   7.090  28.402  1.00 23.21    -0.218 OA
BRANCH   8  13
HETATM   13  N9A NAD C 850      17.949   8.650  28.906  1.00 21.64    -0.270 N 
HETATM   14  C8A NAD C 850      18.154   9.980  28.835  1.00 21.89     0.182 A 
HETATM   15  N7A NAD C 850      19.482  10.220  28.738  1.00 20.90    -0.219 NA
HETATM   16  C5A NAD C 850      20.102   9.014  28.755  1.00 21.50     0.155 A 
HETATM   17  C6A NAD C 850      21.427   8.611  28.685  1.00 21.09     0.206 A 
HETATM   18  C4A NAD C 850      19.128   8.032  28.874  1.00 20.71     0.170 A 
HETATM   19  N6A NAD C 850      22.424   9.528  28.581  1.00 21.85    -0.125 N 
HETATM   20  N1A NAD C 850      21.722   7.286  28.748  1.00 20.90    -0.202 NA
HETATM   21  C2A NAD C 850      20.765   6.353  28.857  1.00 21.12     0.202 A 
HETATM   22  N3A NAD C 850      19.471   6.710  28.929  1.00 21.76    -0.205 NA
ENDBRANCH   8  13
ENDBRANCH   5   6
ENDBRANCH   4   5
ENDBRANCH   1   4
BRANCH   1  23
HETATM   23  O3  NAD C 850      17.936   2.104  31.402  1.00 23.40    -0.180 OA
BRANCH  23  24
HETATM   24  PN  NAD C 850      17.032   2.173  32.740  1.00 25.31     0.418 P 
HETATM   25  O1N NAD C 850      15.603   2.332  32.277  1.00 24.39    -0.624 OA
HETATM   26  O2N NAD C 850      17.616   3.116  33.771  1.00 26.78    -0.624 OA
BRANCH  24  27
HETATM   27  O5D NAD C 850      17.159   0.677  33.292  1.00 23.84    -0.268 OA
BRANCH  27  28
HETATM   28  C5D NAD C 850      17.367   0.348  34.664  1.00 22.34     0.187 C 
BRANCH  28  29
HETATM   29  C4D NAD C 850      16.007  -0.091  35.203  1.00 22.30     0.181 C 
HETATM   30  O4D NAD C 850      15.215  -0.665  34.150  1.00 23.19    -0.331 OA
HETATM   31  C1D NAD C 850      14.802  -1.979  34.560  1.00 23.40     0.239 C 
HETATM   32  C2D NAD C 850      15.870  -2.461  35.532  1.00 22.04     0.234 C 
HETATM   33  C3D NAD C 850      16.132  -1.158  36.280  1.00 22.70     0.216 C 
HETATM   34  O2D NAD C 850      15.387  -3.493  36.402  1.00 21.71    -0.216 OA
HETATM   35  O3D NAD C 850      15.101  -0.942  37.255  1.00 20.97    -0.218 OA
BRANCH  31  36
HETATM   36  N1N NAD C 850      14.509  -2.893  33.454  1.00 23.23    -0.301 N 
HETATM   37  C2N NAD C 850      13.389  -3.650  33.445  1.00 23.13     0.083 A 
HETATM   38  C3N NAD C 850      13.127  -4.516  32.375  1.00 22.92     0.077 A 
HETATM   39  C4N NAD C 850      14.053  -4.572  31.333  1.00 23.16     0.008 A 
HETATM   40  C5N NAD C 850      15.203  -3.776  31.363  1.00 22.68     0.019 A 
HETATM   41  C6N NAD C 850      15.408  -2.927  32.448  1.00 21.96     0.078 A 
BRANCH  38  42
HETATM   42  C7N NAD C 850      11.887  -5.392  32.355  1.00 22.26     0.298 C 
HETATM   43  O7N NAD C 850      11.959  -6.573  32.043  1.00 22.02    -0.264 OA
HETATM   44  N7N NAD C 850      10.719  -4.867  32.699  1.00 22.30    -0.102 N 
ENDBRANCH  38  42
ENDBRANCH  31  36
ENDBRANCH  28  29
ENDBRANCH  27  28
ENDBRANCH  24  27
ENDBRANCH  23  24
ENDBRANCH   1  23
TORSDOF 11
ENDMDL
MODEL 4
REMARK VINA RESULT:    -9.892      2.094      3.479
REMARK INTER + INTRA:         -17.948
REMARK INTER:                 -15.990
REMARK INTRA:                  -1.959
REMARK UNBOUND:                -1.695
REMARK  11 active torsions:
REMARK  status: ('A' for Active; 'I' for Inactive)
REMARK    1  A    between atoms: PA_1  and  O5B_4 
REMARK    2  A    between atoms: PA_1  and  O3_23 
REMARK    3  A    between atoms: O5B_4  and  C5B_5 
REMARK    4  A    between atoms: C5B_5  and  C4B_6 
REMARK    5  A    between atoms: C1B_12  and  N9A_13 
REMARK    6  A    between atoms: O3_23  and  PN_24 
REMARK    7  A    between atoms: PN_24  and  O5D_27 
REMARK    8  A    between atoms: O5D_27  and  C5D_28 
REMARK    9  A    between atoms: C5D_28  and  C4D_29 
REMARK   10  A    between atoms: C1D_35  and  N1N_36 
REMARK   11  A    between atoms: C3N_38  and  C7N_39 
ROOT
HETATM    1  PA  NAD C 850      17.532   3.242  32.368  1.00 24.56     0.418 P 
HETATM    2  O1A NAD C 850      18.815   3.099  33.121  1.00 22.36    -0.624 OA
HETATM    3  O2A NAD C 850      16.992   4.620  32.031  1.00 26.29    -0.624 OA
ENDROOT
BRANCH   1   4
HETATM    4  O5B NAD C 850      16.434   2.416  33.206  1.00 23.36    -0.268 OA
BRANCH   4   5
HETATM    5  C5B NAD C 850      16.457   0.982  33.237  1.00 22.26     0.187 C 
BRANCH   5   6
HETATM    6  C4B NAD C 850      15.156   0.486  33.878  1.00 22.35     0.181 C 
HETATM    7  O4B NAD C 850      14.560  -0.478  32.999  1.00 21.04    -0.331 OA
HETATM    8  C1B NAD C 850      14.378  -1.688  33.728  1.00 20.56     0.241 C 
HETATM    9  C2B NAD C 850      15.451  -1.670  34.808  1.00 23.20     0.234 C 
HETATM   10  C3B NAD C 850      15.416  -0.219  35.213  1.00 22.70     0.216 C 
HETATM   11  O2B NAD C 850      15.161  -2.575  35.879  1.00 25.01    -0.216 OA
HETATM   12  O3B NAD C 850      14.314  -0.019  36.116  1.00 23.21    -0.218 OA
BRANCH   8  13
HETATM   13  N9A NAD C 850      14.471  -2.927  32.936  1.00 21.64    -0.270 N 
HETATM   14  C8A NAD C 850      15.543  -3.421  32.286  1.00 21.89     0.182 A 
HETATM   15  N7A NAD C 850      15.213  -4.605  31.720  1.00 20.90    -0.219 NA
HETATM   16  C5A NAD C 850      13.915  -4.843  32.035  1.00 21.50     0.155 A 
HETATM   17  C6A NAD C 850      13.028  -5.870  31.750  1.00 21.09     0.206 A 
HETATM   18  C4A NAD C 850      13.461  -3.786  32.812  1.00 20.71     0.170 A 
HETATM   19  N6A NAD C 850      13.420  -6.936  31.006  1.00 21.85    -0.125 N 
HETATM   20  N1A NAD C 850      11.764  -5.811  32.246  1.00 20.90    -0.202 NA
HETATM   21  C2A NAD C 850      11.343  -4.779  32.990  1.00 21.12     0.202 A 
HETATM   22  N3A NAD C 850      12.180  -3.768  33.287  1.00 21.76    -0.205 NA
ENDBRANCH   8  13
ENDBRANCH   5   6
ENDBRANCH   4   5
ENDBRANCH   1   4
BRANCH   1  23
HETATM   23  O3  NAD C 850      17.702   2.409  31.001  1.00 23.40    -0.180 OA
BRANCH  23  24
HETATM   24  PN  NAD C 850      18.724   2.587  29.762  1.00 25.31     0.418 P 
HETATM   25  O1N NAD C 850      17.883   2.528  28.508  1.00 24.39    -0.624 OA
HETATM   26  O2N NAD C 850      19.950   1.710  29.907  1.00 26.78    -0.624 OA
BRANCH  24  27
HETATM   27  O5D NAD C 850      19.170   4.114  29.928  1.00 23.84    -0.268 OA
BRANCH  27  28
HETATM   28  C5D NAD C 850      20.432   4.627  29.503  1.00 22.34     0.187 C 
BRANCH  28  29
HETATM   29  C4D NAD C 850      20.126   5.900  28.718  1.00 22.30     0.181 C 
HETATM   30  O4D NAD C 850      18.817   5.823  28.130  1.00 23.19    -0.331 OA
HETATM   31  C1D NAD C 850      18.062   6.970  28.554  1.00 23.40     0.239 C 
HETATM   32  C2D NAD C 850      18.652   7.377  29.897  1.00 22.04     0.234 C 
HETATM   33  C3D NAD C 850      20.129   7.137  29.603  1.00 22.70     0.216 C 
HETATM   34  O2D NAD C 850      18.383   8.747  30.216  1.00 21.71    -0.216 OA
HETATM   35  O3D NAD C 850      20.658   8.236  28.847  1.00 20.97    -0.218 OA
BRANCH  31  36
HETATM   36  N1N NAD C 850      16.611   6.776  28.545  1.00 23.23    -0.301 N 
HETATM   37  C2N NAD C 850      16.061   5.575  28.836  1.00 23.13     0.083 A 
HETATM   38  C3N NAD C 850      14.670   5.411  28.825  1.00 22.92     0.077 A 
HETATM   39  C4N NAD C 850      13.880   6.516  28.502  1.00 23.16     0.008 A 
HETATM   40  C5N NAD C 850      14.472   7.748  28.208  1.00 22.68     0.019 A 
HETATM   41  C6N NAD C 850      15.861   7.856  28.243  1.00 21.96     0.078 A 
BRANCH  38  42
HETATM   42  C7N NAD C 850      14.032   4.067  29.126  1.00 22.26     0.298 C 
HETATM   43  O7N NAD C 850      14.572   3.273  29.885  1.00 22.02    -0.264 OA
HETATM   44  N7N NAD C 850      12.866   3.765  28.571  1.00 22.30    -0.102 N 
ENDBRANCH  38  42
ENDBRANCH  31  36
ENDBRANCH  28  29
ENDBRANCH  27  28
ENDBRANCH  24  27
ENDBRANCH  23  24
ENDBRANCH   1  23
TORSDOF 11
ENDMDL
MODEL 5
REMARK VINA RESULT:    -9.850      2.504     11.472
REMARK INTER + INTRA:         -17.879
REMARK INTER:                 -16.030
REMARK INTRA:                  -1.849
REMARK UNBOUND:                -1.695
REMARK  11 active torsions:
REMARK  status: ('A' for Active; 'I' for Inactive)
REMARK    1  A    between atoms: PA_1  and  O5B_4 
REMARK    2  A    between atoms: PA_1  and  O3_23 
REMARK    3  A    between atoms: O5B_4  and  C5B_5 
REMARK    4  A    between atoms: C5B_5  and  C4B_6 
REMARK    5  A    between atoms: C1B_12  and  N9A_13 
REMARK    6  A    between atoms: O3_23  and  PN_24 
REMARK    7  A    between atoms: PN_24  and  O5D_27 
REMARK    8  A    between atoms: O5D_27  and  C5D_28 
REMARK    9  A    between atoms: C5D_28  and  C4D_29 
REMARK   10  A    between atoms: C1D_35  and  N1N_36 
REMARK   11  A    between atoms: C3N_38  and  C7N_39 
ROOT
HETATM    1  PA  NAD C 850      17.671   3.138  32.498  1.00 24.56     0.418 P 
HETATM    2  O1A NAD C 850      18.530   4.337  32.259  1.00 22.36    -0.624 OA
HETATM    3  O2A NAD C 850      17.965   1.830  31.784  1.00 26.29    -0.624 OA
ENDROOT
BRANCH   1   4
HETATM    4  O5B NAD C 850      16.164   3.604  32.181  1.00 23.36    -0.268 OA
BRANCH   4   5
HETATM    5  C5B NAD C 850      15.366   2.910  31.213  1.00 22.26     0.187 C 
BRANCH   5   6
HETATM    6  C4B NAD C 850      14.559   3.940  30.415  1.00 22.35     0.181 C 
HETATM    7  O4B NAD C 850      15.278   5.181  30.424  1.00 21.04    -0.331 OA
HETATM    8  C1B NAD C 850      15.499   5.574  29.073  1.00 20.56     0.241 C 
HETATM    9  C2B NAD C 850      15.514   4.277  28.277  1.00 23.20     0.234 C 
HETATM   10  C3B NAD C 850      14.398   3.521  28.950  1.00 22.70     0.216 C 
HETATM   11  O2B NAD C 850      15.301   4.495  26.877  1.00 25.01    -0.216 OA
HETATM   12  O3B NAD C 850      13.143   3.987  28.423  1.00 23.21    -0.218 OA
BRANCH   8  13
HETATM   13  N9A NAD C 850      16.734   6.340  28.828  1.00 21.64    -0.270 N 
HETATM   14  C8A NAD C 850      17.974   6.089  29.294  1.00 21.89     0.182 A 
HETATM   15  N7A NAD C 850      18.829   7.011  28.794  1.00 20.90    -0.219 NA
HETATM   16  C5A NAD C 850      18.101   7.836  28.003  1.00 21.50     0.155 A 
HETATM   17  C6A NAD C 850      18.405   8.951  27.235  1.00 21.09     0.206 A 
HETATM   18  C4A NAD C 850      16.784   7.398  28.021  1.00 20.71     0.170 A 
HETATM   19  N6A NAD C 850      19.678   9.418  27.168  1.00 21.85    -0.125 N 
HETATM   20  N1A NAD C 850      17.417   9.557  26.526  1.00 20.90    -0.202 NA
HETATM   21  C2A NAD C 850      16.150   9.121  26.562  1.00 21.12     0.202 A 
HETATM   22  N3A NAD C 850      15.822   8.042  27.295  1.00 21.76    -0.205 NA
ENDBRANCH   8  13
ENDBRANCH   5   6
ENDBRANCH   4   5
ENDBRANCH   1   4
BRANCH   1  23
HETATM   23  O3  NAD C 850      17.682   2.869  34.085  1.00 23.40    -0.180 OA
BRANCH  23  24
HETATM   24  PN  NAD C 850      18.852   2.355  35.074  1.00 25.31     0.418 P 
HETATM   25  O1N NAD C 850      18.859   3.303  36.250  1.00 24.39    -0.624 OA
HETATM   26  O2N NAD C 850      20.132   2.046  34.327  1.00 26.78    -0.624 OA
BRANCH  24  27
HETATM   27  O5D NAD C 850      18.236   0.980  35.613  1.00 23.84    -0.268 OA
BRANCH  27  28
HETATM   28  C5D NAD C 850      17.731  -0.053  34.769  1.00 22.34     0.187 C 
BRANCH  28  29
HETATM   29  C4D NAD C 850      16.290  -0.293  35.214  1.00 22.30     0.181 C 
HETATM   30  O4D NAD C 850      15.510  -0.812  34.124  1.00 23.19    -0.331 OA
HETATM   31  C1D NAD C 850      14.903  -2.044  34.549  1.00 23.40     0.239 C 
HETATM   32  C2D NAD C 850      15.826  -2.609  35.620  1.00 22.04     0.234 C 
HETATM   33  C3D NAD C 850      16.197  -1.315  36.336  1.00 22.70     0.216 C 
HETATM   34  O2D NAD C 850      15.152  -3.530  36.486  1.00 21.71    -0.216 OA
HETATM   35  O3D NAD C 850      15.133  -0.926  37.218  1.00 20.97    -0.218 OA
BRANCH  31  36
HETATM   36  N1N NAD C 850      14.578  -2.965  33.458  1.00 23.23    -0.301 N 
HETATM   37  C2N NAD C 850      13.429  -3.678  33.458  1.00 23.13     0.083 A 
HETATM   38  C3N NAD C 850      13.136  -4.552  32.403  1.00 22.92     0.077 A 
HETATM   39  C4N NAD C 850      14.063  -4.663  31.365  1.00 23.16     0.008 A 
HETATM   40  C5N NAD C 850      15.243  -3.912  31.386  1.00 22.68     0.019 A 
HETATM   41  C6N NAD C 850      15.478  -3.053  32.457  1.00 21.96     0.078 A 
BRANCH  38  42
HETATM   42  C7N NAD C 850      11.863  -5.379  32.394  1.00 22.26     0.298 C 
HETATM   43  O7N NAD C 850      11.873  -6.539  32.008  1.00 22.02    -0.264 OA
HETATM   44  N7N NAD C 850      10.735  -4.834  32.829  1.00 22.30    -0.102 N 
ENDBRANCH  38  42
ENDBRANCH  31  36
ENDBRANCH  28  29
ENDBRANCH  27  28
ENDBRANCH  24  27
ENDBRANCH  23  24
ENDBRANCH   1  23
TORSDOF 11
ENDMDL
MODEL 6
REMARK VINA RESULT:    -9.841      2.227     10.531
REMARK INTER + INTRA:         -17.865
REMARK INTER:                 -15.962
REMARK INTRA:                  -1.903
REMARK UNBOUND:                -1.695
REMARK  11 active torsions:
REMARK  status: ('A' for Active; 'I' for Inactive)
REMARK    1  A    between atoms: PA_1  and  O5B_4 
REMARK    2  A    between atoms: PA_1  and  O3_23 
REMARK    3  A    between atoms: O5B_4  and  C5B_5 
REMARK    4  A    between atoms: C5B_5  and  C4B_6 
REMARK    5  A    between atoms: C1B_12  and  N9A_13 
REMARK    6  A    between atoms: O3_23  and  PN_24 
REMARK    7  A    between atoms: PN_24  and  O5D_27 
REMARK    8  A    between atoms: O5D_27  and  C5D_28 
REMARK    9  A    between atoms: C5D_28  and  C4D_29 
REMARK   10  A    between atoms: C1D_35  and  N1N_36 
REMARK   11  A    between atoms: C3N_38  and  C7N_39 
ROOT
HETATM    1  PA  NAD C 850      13.761   4.632  28.956  1.00 24.56     0.418 P 
HETATM    2  O1A NAD C 850      14.219   4.365  27.559  1.00 22.36    -0.624 OA
HETATM    3  O2A NAD C 850      12.295   4.486  29.323  1.00 26.29    -0.624 OA
ENDROOT
BRANCH   1   4
HETATM    4  O5B NAD C 850      14.266   6.118  29.311  1.00 23.36    -0.268 OA
BRANCH   4   5
HETATM    5  C5B NAD C 850      14.187   7.173  28.343  1.00 22.26     0.187 C 
BRANCH   5   6
HETATM    6  C4B NAD C 850      15.358   8.136  28.573  1.00 22.35     0.181 C 
HETATM    7  O4B NAD C 850      16.185   7.600  29.614  1.00 21.04    -0.331 OA
HETATM    8  C1B NAD C 850      17.508   7.467  29.104  1.00 20.56     0.241 C 
HETATM    9  C2B NAD C 850      17.341   7.287  27.602  1.00 23.20     0.234 C 
HETATM   10  C3B NAD C 850      16.234   8.269  27.323  1.00 22.70     0.216 C 
HETATM   11  O2B NAD C 850      18.550   7.560  26.884  1.00 25.01    -0.216 OA
HETATM   12  O3B NAD C 850      16.800   9.589  27.237  1.00 23.21    -0.218 OA
BRANCH   8  13
HETATM   13  N9A NAD C 850      18.298   6.358  29.668  1.00 21.64    -0.270 N 
HETATM   14  C8A NAD C 850      19.173   6.397  30.692  1.00 21.89     0.182 A 
HETATM   15  N7A NAD C 850      19.647   5.150  30.918  1.00 20.90    -0.219 NA
HETATM   16  C5A NAD C 850      19.046   4.332  30.019  1.00 21.50     0.155 A 
HETATM   17  C6A NAD C 850      19.122   2.972  29.754  1.00 21.09     0.206 A 
HETATM   18  C4A NAD C 850      18.189   5.100  29.244  1.00 20.71     0.170 A 
HETATM   19  N6A NAD C 850      19.933   2.168  30.487  1.00 21.85    -0.125 N 
HETATM   20  N1A NAD C 850      18.352   2.447  28.765  1.00 20.90    -0.202 NA
HETATM   21  C2A NAD C 850      17.534   3.208  28.024  1.00 21.12     0.202 A 
HETATM   22  N3A NAD C 850      17.436   4.529  28.258  1.00 21.76    -0.205 NA
ENDBRANCH   8  13
ENDBRANCH   5   6
ENDBRANCH   4   5
ENDBRANCH   1   4
BRANCH   1  23
HETATM   23  O3  NAD C 850      14.628   3.675  29.919  1.00 23.40    -0.180 OA
BRANCH  23  24
HETATM   24  PN  NAD C 850      14.888   3.717  31.513  1.00 25.31     0.418 P 
HETATM   25  O1N NAD C 850      13.566   4.078  32.149  1.00 24.39    -0.624 OA
HETATM   26  O2N NAD C 850      16.146   4.485  31.863  1.00 26.78    -0.624 OA
BRANCH  24  27
HETATM   27  O5D NAD C 850      15.133   2.170  31.840  1.00 23.84    -0.268 OA
BRANCH  27  28
HETATM   28  C5D NAD C 850      16.206   1.685  32.645  1.00 22.34     0.187 C 
BRANCH  28  29
HETATM   29  C4D NAD C 850      15.555   0.951  33.816  1.00 22.30     0.181 C 
HETATM   30  O4D NAD C 850      14.510   0.084  33.344  1.00 23.19    -0.331 OA
HETATM   31  C1D NAD C 850      14.777  -1.245  33.820  1.00 23.40     0.239 C 
HETATM   32  C2D NAD C 850      16.287  -1.324  33.998  1.00 22.04     0.234 C 
HETATM   33  C3D NAD C 850      16.543   0.069  34.563  1.00 22.70     0.216 C 
HETATM   34  O2D NAD C 850      16.673  -2.356  34.913  1.00 21.71    -0.216 OA
HETATM   35  O3D NAD C 850      16.210   0.095  35.959  1.00 20.97    -0.218 OA
BRANCH  31  36
HETATM   36  N1N NAD C 850      14.190  -2.309  33.002  1.00 23.23    -0.301 N 
HETATM   37  C2N NAD C 850      12.982  -2.840  33.298  1.00 23.13     0.083 A 
HETATM   38  C3N NAD C 850      12.438  -3.854  32.500  1.00 22.92     0.077 A 
HETATM   39  C4N NAD C 850      13.179  -4.296  31.402  1.00 23.16     0.008 A 
HETATM   40  C5N NAD C 850      14.425  -3.728  31.114  1.00 22.68     0.019 A 
HETATM   41  C6N NAD C 850      14.913  -2.716  31.938  1.00 21.96     0.078 A 
BRANCH  38  42
HETATM   42  C7N NAD C 850      11.095  -4.480  32.828  1.00 22.26     0.298 C 
HETATM   43  O7N NAD C 850      10.847  -5.635  32.509  1.00 22.02    -0.264 OA
HETATM   44  N7N NAD C 850      10.191  -3.765  33.484  1.00 22.30    -0.102 N 
ENDBRANCH  38  42
ENDBRANCH  31  36
ENDBRANCH  28  29
ENDBRANCH  27  28
ENDBRANCH  24  27
ENDBRANCH  23  24
ENDBRANCH   1  23
TORSDOF 11
ENDMDL
MODEL 7
REMARK VINA RESULT:    -9.789      2.206     11.314
REMARK INTER + INTRA:         -17.779
REMARK INTER:                 -15.862
REMARK INTRA:                  -1.917
REMARK UNBOUND:                -1.695
REMARK  11 active torsions:
REMARK  status: ('A' for Active; 'I' for Inactive)
REMARK    1  A    between atoms: PA_1  and  O5B_4 
REMARK    2  A    between atoms: PA_1  and  O3_23 
REMARK    3  A    between atoms: O5B_4  and  C5B_5 
REMARK    4  A    between atoms: C5B_5  and  C4B_6 
REMARK    5  A    between atoms: C1B_12  and  N9A_13 
REMARK    6  A    between atoms: O3_23  and  PN_24 
REMARK    7  A    between atoms: PN_24  and  O5D_27 
REMARK    8  A    between atoms: O5D_27  and  C5D_28 
REMARK    9  A    between atoms: C5D_28  and  C4D_29 
REMARK   10  A    between atoms: C1D_35  and  N1N_36 
REMARK   11  A    between atoms: C3N_38  and  C7N_39 
ROOT
HETATM    1  PA  NAD C 850      19.407   2.136  30.975  1.00 24.56     0.418 P 
HETATM    2  O1A NAD C 850      20.442   2.887  31.748  1.00 22.36    -0.624 OA
HETATM    3  O2A NAD C 850      19.774   0.857  30.243  1.00 26.29    -0.624 OA
ENDROOT
BRANCH   1   4
HETATM    4  O5B NAD C 850      18.775   3.194  29.940  1.00 23.36    -0.268 OA
BRANCH   4   5
HETATM    5  C5B NAD C 850      18.595   4.568  30.309  1.00 22.26     0.187 C 
BRANCH   5   6
HETATM    6  C4B NAD C 850      17.093   4.874  30.335  1.00 22.35     0.181 C 
HETATM    7  O4B NAD C 850      16.902   6.229  29.904  1.00 21.04    -0.331 OA
HETATM    8  C1B NAD C 850      16.012   6.218  28.792  1.00 20.56     0.241 C 
HETATM    9  C2B NAD C 850      16.198   4.853  28.145  1.00 23.20     0.234 C 
HETATM   10  C3B NAD C 850      16.317   3.978  29.366  1.00 22.70     0.216 C 
HETATM   11  O2B NAD C 850      15.104   4.504  27.289  1.00 25.01    -0.216 OA
HETATM   12  O3B NAD C 850      14.996   3.709  29.870  1.00 23.21    -0.218 OA
BRANCH   8  13
HETATM   13  N9A NAD C 850      16.222   7.288  27.800  1.00 21.64    -0.270 N 
HETATM   14  C8A NAD C 850      15.307   8.127  27.276  1.00 21.89     0.182 A 
HETATM   15  N7A NAD C 850      15.925   8.987  26.434  1.00 20.90    -0.219 NA
HETATM   16  C5A NAD C 850      17.244   8.671  26.447  1.00 21.50     0.155 A 
HETATM   17  C6A NAD C 850      18.362   9.179  25.802  1.00 21.09     0.206 A 
HETATM   18  C4A NAD C 850      17.422   7.608  27.321  1.00 20.71     0.170 A 
HETATM   19  N6A NAD C 850      18.251  10.227  24.947  1.00 21.85    -0.125 N 
HETATM   20  N1A NAD C 850      19.580   8.630  26.056  1.00 20.90    -0.202 NA
HETATM   21  C2A NAD C 850      19.729   7.599  26.899  1.00 21.12     0.202 A 
HETATM   22  N3A NAD C 850      18.666   7.086  27.543  1.00 21.76    -0.205 NA
ENDBRANCH   8  13
ENDBRANCH   5   6
ENDBRANCH   4   5
ENDBRANCH   1   4
BRANCH   1  23
HETATM   23  O3  NAD C 850      18.208   1.814  32.000  1.00 23.40    -0.180 OA
BRANCH  23  24
HETATM   24  PN  NAD C 850      17.972   2.244  33.539  1.00 25.31     0.418 P 
HETATM   25  O1N NAD C 850      18.123   3.747  33.586  1.00 24.39    -0.624 OA
HETATM   26  O2N NAD C 850      18.744   1.364  34.499  1.00 26.78    -0.624 OA
BRANCH  24  27
HETATM   27  O5D NAD C 850      16.411   1.946  33.722  1.00 23.84    -0.268 OA
BRANCH  27  28
HETATM   28  C5D NAD C 850      15.546   1.546  32.661  1.00 22.34     0.187 C 
BRANCH  28  29
HETATM   29  C4D NAD C 850      14.386   0.804  33.321  1.00 22.30     0.181 C 
HETATM   30  O4D NAD C 850      14.034  -0.358  32.551  1.00 23.19    -0.331 OA
HETATM   31  C1D NAD C 850      14.087  -1.505  33.416  1.00 23.40     0.239 C 
HETATM   32  C2D NAD C 850      15.099  -1.158  34.499  1.00 22.04     0.234 C 
HETATM   33  C3D NAD C 850      14.738   0.308  34.715  1.00 22.70     0.216 C 
HETATM   34  O2D NAD C 850      14.913  -1.938  35.685  1.00 21.71    -0.216 OA
HETATM   35  O3D NAD C 850      13.568   0.403  35.540  1.00 20.97    -0.218 OA
BRANCH  31  36
HETATM   36  N1N NAD C 850      14.328  -2.773  32.722  1.00 23.23    -0.301 N 
HETATM   37  C2N NAD C 850      15.582  -3.240  32.527  1.00 23.13     0.083 A 
HETATM   38  C3N NAD C 850      15.791  -4.456  31.864  1.00 22.92     0.077 A 
HETATM   39  C4N NAD C 850      14.672  -5.159  31.414  1.00 23.16     0.008 A 
HETATM   40  C5N NAD C 850      13.385  -4.658  31.631  1.00 22.68     0.019 A 
HETATM   41  C6N NAD C 850      13.236  -3.447  32.304  1.00 21.96     0.078 A 
BRANCH  38  42
HETATM   42  C7N NAD C 850      17.190  -4.987  31.613  1.00 22.26     0.298 C 
HETATM   43  O7N NAD C 850      17.367  -6.147  31.265  1.00 22.02    -0.264 OA
HETATM   44  N7N NAD C 850      18.227  -4.173  31.757  1.00 22.30    -0.102 N 
ENDBRANCH  38  42
ENDBRANCH  31  36
ENDBRANCH  28  29
ENDBRANCH  27  28
ENDBRANCH  24  27
ENDBRANCH  23  24
ENDBRANCH   1  23
TORSDOF 11
ENDMDL
MODEL 8
REMARK VINA RESULT:    -9.728      2.397     11.625
REMARK INTER + INTRA:         -17.678
REMARK INTER:                 -16.146
REMARK INTRA:                  -1.532
REMARK UNBOUND:                -1.695
REMARK  11 active torsions:
REMARK  status: ('A' for Active; 'I' for Inactive)
REMARK    1  A    between atoms: PA_1  and  O5B_4 
REMARK    2  A    between atoms: PA_1  and  O3_23 
REMARK    3  A    between atoms: O5B_4  and  C5B_5 
REMARK    4  A    between atoms: C5B_5  and  C4B_6 
REMARK    5  A    between atoms: C1B_12  and  N9A_13 
REMARK    6  A    between atoms: O3_23  and  PN_24 
REMARK    7  A    between atoms: PN_24  and  O5D_27 
REMARK    8  A    between atoms: O5D_27  and  C5D_28 
REMARK    9  A    between atoms: C5D_28  and  C4D_29 
REMARK   10  A    between atoms: C1D_35  and  N1N_36 
REMARK   11  A    between atoms: C3N_38  and  C7N_39 
ROOT
HETATM    1  PA  NAD C 850      16.998   1.897  33.001  1.00 24.56     0.418 P 
HETATM    2  O1A NAD C 850      17.243   2.432  34.375  1.00 22.36    -0.624 OA
HETATM    3  O2A NAD C 850      18.164   1.589  32.079  1.00 26.29    -0.624 OA
ENDROOT
BRANCH   1   4
HETATM    4  O5B NAD C 850      16.004   2.945  32.290  1.00 23.36    -0.268 OA
BRANCH   4   5
HETATM    5  C5B NAD C 850      15.722   2.857  30.887  1.00 22.26     0.187 C 
BRANCH   5   6
HETATM    6  C4B NAD C 850      15.034   4.153  30.444  1.00 22.35     0.181 C 
HETATM    7  O4B NAD C 850      16.026   5.185  30.364  1.00 21.04    -0.331 OA
HETATM    8  C1B NAD C 850      15.997   5.726  29.047  1.00 20.56     0.241 C 
HETATM    9  C2B NAD C 850      15.480   4.599  28.164  1.00 23.20     0.234 C 
HETATM   10  C3B NAD C 850      14.412   4.015  29.051  1.00 22.70     0.216 C 
HETATM   11  O2B NAD C 850      14.989   5.076  26.906  1.00 25.01    -0.216 OA
HETATM   12  O3B NAD C 850      13.228   4.825  28.940  1.00 23.21    -0.218 OA
BRANCH   8  13
HETATM   13  N9A NAD C 850      17.286   6.226  28.537  1.00 21.64    -0.270 N 
HETATM   14  C8A NAD C 850      18.474   5.590  28.513  1.00 21.89     0.182 A 
HETATM   15  N7A NAD C 850      19.392   6.388  27.920  1.00 20.90    -0.219 NA
HETATM   16  C5A NAD C 850      18.752   7.531  27.570  1.00 21.50     0.155 A 
HETATM   17  C6A NAD C 850      19.149   8.704  26.944  1.00 21.09     0.206 A 
HETATM   18  C4A NAD C 850      17.423   7.414  27.952  1.00 20.71     0.170 A 
HETATM   19  N6A NAD C 850      20.433   8.870  26.537  1.00 21.85    -0.125 N 
HETATM   20  N1A NAD C 850      18.229   9.680  26.720  1.00 20.90    -0.202 NA
HETATM   21  C2A NAD C 850      16.951   9.549  27.102  1.00 21.12     0.202 A 
HETATM   22  N3A NAD C 850      16.534   8.423  27.708  1.00 21.76    -0.205 NA
ENDBRANCH   8  13
ENDBRANCH   5   6
ENDBRANCH   4   5
ENDBRANCH   1   4
BRANCH   1  23
HETATM   23  O3  NAD C 850      16.115   0.562  33.175  1.00 23.40    -0.180 OA
BRANCH  23  24
HETATM   24  PN  NAD C 850      14.557   0.353  33.549  1.00 25.31     0.418 P 
HETATM   25  O1N NAD C 850      13.964  -0.484  32.439  1.00 24.39    -0.624 OA
HETATM   26  O2N NAD C 850      13.896   1.648  33.973  1.00 26.78    -0.624 OA
BRANCH  24  27
HETATM   27  O5D NAD C 850      14.658  -0.606  34.825  1.00 23.84    -0.268 OA
BRANCH  27  28
HETATM   28  C5D NAD C 850      15.673  -0.502  35.822  1.00 22.34     0.187 C 
BRANCH  28  29
HETATM   29  C4D NAD C 850      16.316  -1.884  35.915  1.00 22.30     0.181 C 
HETATM   30  O4D NAD C 850      15.379  -2.898  35.516  1.00 23.19    -0.331 OA
HETATM   31  C1D NAD C 850      15.976  -3.676  34.464  1.00 23.40     0.239 C 
HETATM   32  C2D NAD C 850      16.963  -2.744  33.774  1.00 22.04     0.234 C 
HETATM   33  C3D NAD C 850      17.520  -2.022  34.996  1.00 22.70     0.216 C 
HETATM   34  O2D NAD C 850      17.979  -3.461  33.063  1.00 21.71    -0.216 OA
HETATM   35  O3D NAD C 850      18.495  -2.850  35.646  1.00 20.97    -0.218 OA
BRANCH  31  36
HETATM   36  N1N NAD C 850      15.012  -4.330  33.577  1.00 23.23    -0.301 N 
HETATM   37  C2N NAD C 850      13.693  -4.037  33.632  1.00 23.13     0.083 A 
HETATM   38  C3N NAD C 850      12.788  -4.673  32.772  1.00 22.92     0.077 A 
HETATM   39  C4N NAD C 850      13.290  -5.611  31.868  1.00 23.16     0.008 A 
HETATM   40  C5N NAD C 850      14.659  -5.894  31.826  1.00 22.68     0.019 A 
HETATM   41  C6N NAD C 850      15.513  -5.225  32.700  1.00 21.96     0.078 A 
BRANCH  38  42
HETATM   42  C7N NAD C 850      11.301  -4.376  32.833  1.00 22.26     0.298 C 
HETATM   43  O7N NAD C 850      10.479  -5.231  32.532  1.00 22.02    -0.264 OA
HETATM   44  N7N NAD C 850      10.896  -3.179  33.236  1.00 22.30    -0.102 N 
ENDBRANCH  38  42
ENDBRANCH  31  36
ENDBRANCH  28  29
ENDBRANCH  27  28
ENDBRANCH  24  27
ENDBRANCH  23  24
ENDBRANCH   1  23
TORSDOF 11
ENDMDL
MODEL 9
REMARK VINA RESULT:    -9.669      2.164     11.917
REMARK INTER + INTRA:         -17.581
REMARK INTER:                 -15.874
REMARK INTRA:                  -1.707
REMARK UNBOUND:                -1.695
REMARK  11 active torsions:
REMARK  status: ('A' for Active; 'I' for Inactive)
REMARK    1  A    between atoms: PA_1  and  O5B_4 
REMARK    2  A    between atoms: PA_1  and  O3_23 
REMARK    3  A    between atoms: O5B_4  and  C5B_5 
REMARK    4  A    between atoms: C5B_5  and  C4B_6 
REMARK    5  A    between atoms: C1B_12  and  N9A_13 
REMARK    6  A    between atoms: O3_23  and  PN_24 
REMARK    7  A    between atoms: PN_24  and  O5D_27 
REMARK    8  A    between atoms: O5D_27  and  C5D_28 
REMARK    9  A    between atoms: C5D_28  and  C4D_29 
REMARK   10  A    between atoms: C1D_35  and  N1N_36 
REMARK   11  A    between atoms: C3N_38  and  C7N_39 
ROOT
HETATM    1  PA  NAD C 850      14.997   2.903  32.002  1.00 24.56     0.418 P 
HETATM    2  O1A NAD C 850      14.575   1.470  31.967  1.00 22.36    -0.624 OA
HETATM    3  O2A NAD C 850      14.038   3.973  32.492  1.00 26.29    -0.624 OA
ENDROOT
BRANCH   1   4
HETATM    4  O5B NAD C 850      15.491   3.255  30.511  1.00 23.36    -0.268 OA
BRANCH   4   5
HETATM    5  C5B NAD C 850      15.575   4.615  30.065  1.00 22.26     0.187 C 
BRANCH   5   6
HETATM    6  C4B NAD C 850      17.046   5.045  30.081  1.00 22.35     0.181 C 
HETATM    7  O4B NAD C 850      17.391   5.520  28.772  1.00 21.04    -0.331 OA
HETATM    8  C1B NAD C 850      17.887   6.848  28.899  1.00 20.56     0.241 C 
HETATM    9  C2B NAD C 850      17.226   7.404  30.153  1.00 23.20     0.234 C 
HETATM   10  C3B NAD C 850      17.286   6.200  31.058  1.00 22.70     0.216 C 
HETATM   11  O2B NAD C 850      17.914   8.549  30.668  1.00 25.01    -0.216 OA
HETATM   12  O3B NAD C 850      18.605   6.118  31.627  1.00 23.21    -0.218 OA
BRANCH   8  13
HETATM   13  N9A NAD C 850      17.631   7.735  27.750  1.00 21.64    -0.270 N 
HETATM   14  C8A NAD C 850      16.484   8.362  27.423  1.00 21.89     0.182 A 
HETATM   15  N7A NAD C 850      16.690   9.115  26.318  1.00 20.90    -0.219 NA
HETATM   16  C5A NAD C 850      17.989   8.950  25.966  1.00 21.50     0.155 A 
HETATM   17  C6A NAD C 850      18.780   9.448  24.940  1.00 21.09     0.206 A 
HETATM   18  C4A NAD C 850      18.576   8.088  26.881  1.00 20.71     0.170 A 
HETATM   19  N6A NAD C 850      18.263  10.305  24.022  1.00 21.85    -0.125 N 
HETATM   20  N1A NAD C 850      20.089   9.087  24.878  1.00 20.90    -0.202 NA
HETATM   21  C2A NAD C 850      20.635   8.249  25.770  1.00 21.12     0.202 A 
HETATM   22  N3A NAD C 850      19.897   7.751  26.777  1.00 21.76    -0.205 NA
ENDBRANCH   8  13
ENDBRANCH   5   6
ENDBRANCH   4   5
ENDBRANCH   1   4
BRANCH   1  23
HETATM   23  O3  NAD C 850      16.337   2.969  32.893  1.00 23.40    -0.180 OA
BRANCH  23  24
HETATM   24  PN  NAD C 850      17.709   2.119  32.824  1.00 25.31     0.418 P 
HETATM   25  O1N NAD C 850      18.584   2.636  33.942  1.00 24.39    -0.624 OA
HETATM   26  O2N NAD C 850      18.245   2.019  31.411  1.00 26.78    -0.624 OA
BRANCH  24  27
HETATM   27  O5D NAD C 850      17.213   0.668  33.281  1.00 23.84    -0.268 OA
BRANCH  27  28
HETATM   28  C5D NAD C 850      17.950  -0.190  34.150  1.00 22.34     0.187 C 
BRANCH  28  29
HETATM   29  C4D NAD C 850      16.920  -0.842  35.070  1.00 22.30     0.181 C 
HETATM   30  O4D NAD C 850      15.722  -1.151  34.339  1.00 23.19    -0.331 OA
HETATM   31  C1D NAD C 850      15.438  -2.550  34.508  1.00 23.40     0.239 C 
HETATM   32  C2D NAD C 850      16.784  -3.215  34.763  1.00 22.04     0.234 C 
HETATM   33  C3D NAD C 850      17.420  -2.154  35.655  1.00 22.70     0.216 C 
HETATM   34  O2D NAD C 850      16.649  -4.473  35.434  1.00 21.71    -0.216 OA
HETATM   35  O3D NAD C 850      16.914  -2.278  36.992  1.00 20.97    -0.218 OA
BRANCH  31  36
HETATM   36  N1N NAD C 850      14.647  -3.140  33.425  1.00 23.23    -0.301 N 
HETATM   37  C2N NAD C 850      13.375  -3.553  33.628  1.00 23.13     0.083 A 
HETATM   38  C3N NAD C 850      12.635  -4.112  32.578  1.00 22.92     0.077 A 
HETATM   39  C4N NAD C 850      13.251  -4.230  31.330  1.00 23.16     0.008 A 
HETATM   40  C5N NAD C 850      14.566  -3.793  31.145  1.00 22.68     0.019 A 
HETATM   41  C6N NAD C 850      15.252  -3.237  32.223  1.00 21.96     0.078 A 
BRANCH  38  42
HETATM   42  C7N NAD C 850      11.215  -4.602  32.788  1.00 22.26     0.298 C 
HETATM   43  O7N NAD C 850      10.889  -5.737  32.466  1.00 22.02    -0.264 OA
HETATM   44  N7N NAD C 850      10.326  -3.791  33.347  1.00 22.30    -0.102 N 
ENDBRANCH  38  42
ENDBRANCH  31  36
ENDBRANCH  28  29
ENDBRANCH  27  28
ENDBRANCH  24  27
ENDBRANCH  23  24
ENDBRANCH   1  23
TORSDOF 11
ENDMDL
