REMARK  11 active torsions:
REMARK  status: ('A' for Active; 'I' for Inactive)
REMARK    1  A    between atoms: PA_1  and  O5B_4 
REMARK    2  A    between atoms: PA_1  and  O3_23 
REMARK    3  A    between atoms: O5B_4  and  C5B_5 
REMARK    4  A    between atoms: C5B_5  and  C4B_6 
REMARK    5  A    between atoms: C1B_12  and  N9A_13 
REMARK    6  A    between atoms: O3_23  and  PN_24 
REMARK    7  A    between atoms: PN_24  and  O5D_27 
REMARK    8  A    between atoms: O5D_27  and  C5D_28 
REMARK    9  A    between atoms: C5D_28  and  C4D_29 
REMARK   10  A    between atoms: C1D_35  and  N1N_36 
REMARK   11  A    between atoms: C3N_38  and  C7N_39 
ROOT
HETATM    1  PA  NAD C 850      37.281  -4.578  58.192  1.00 24.56     0.418 P 
HETATM    2  O1A NAD C 850      36.219  -4.032  57.294  1.00 22.36    -0.624 OA
HETATM    3  O2A NAD C 850      37.559  -3.926  59.535  1.00 26.29    -0.624 OA
ENDROOT
BRANCH   1   4
HETATM    4  O5B NAD C 850      38.629  -4.611  57.313  1.00 23.36    -0.268 OA
BRANCH   4   5
HETATM    5  C5B NAD C 850      38.653  -5.241  56.025  1.00 22.26     0.187 C 
BRANCH   5   6
HETATM    6  C4B NAD C 850      40.038  -5.029  55.403  1.00 22.35     0.181 C 
HETATM    7  O4B NAD C 850      39.999  -5.494  54.047  1.00 21.04    -0.331 OA
HETATM    8  C1B NAD C 850      40.395  -4.421  53.199  1.00 20.56     0.241 C 
HETATM    9  C2B NAD C 850      40.027  -3.154  53.959  1.00 23.20     0.234 C 
HETATM   10  C3B NAD C 850      40.417  -3.545  55.361  1.00 22.70     0.216 C 
HETATM   11  O2B NAD C 850      40.722  -2.003  53.466  1.00 25.01    -0.216 OA
HETATM   12  O3B NAD C 850      41.839  -3.380  55.506  1.00 23.21    -0.218 OA
BRANCH   8  13
HETATM   13  N9A NAD C 850      39.782  -4.410  51.859  1.00 21.64    -0.270 N 
HETATM   14  C8A NAD C 850      38.472  -4.377  51.544  1.00 21.89     0.182 A 
HETATM   15  N7A NAD C 850      38.341  -4.333  50.198  1.00 20.90    -0.219 NA
HETATM   16  C5A NAD C 850      39.594  -4.333  49.680  1.00 21.50     0.155 A 
HETATM   17  C6A NAD C 850      40.103  -4.302  48.390  1.00 21.09     0.206 A 
HETATM   18  C4A NAD C 850      40.495  -4.369  50.735  1.00 20.71     0.170 A 
HETATM   19  N6A NAD C 850      39.270  -4.253  47.319  1.00 21.85    -0.125 N 
HETATM   20  N1A NAD C 850      41.450  -4.295  48.209  1.00 20.90    -0.202 NA
HETATM   21  C2A NAD C 850      42.303  -4.336  49.242  1.00 21.12     0.202 A 
HETATM   22  N3A NAD C 850      41.842  -4.364  50.505  1.00 21.76    -0.205 NA
ENDBRANCH   8  13
ENDBRANCH   5   6
ENDBRANCH   4   5
ENDBRANCH   1   4
BRANCH   1  23
HETATM   23  O3  NAD C 850      36.927  -6.129  58.439  1.00 23.40    -0.180 OA
BRANCH  23  24
HETATM   24  PN  NAD C 850      37.687  -7.277  59.285  1.00 25.31     0.418 P 
HETATM   25  O1N NAD C 850      36.649  -7.888  60.197  1.00 24.39    -0.624 OA
HETATM   26  O2N NAD C 850      39.009  -6.791  59.841  1.00 26.78    -0.624 OA
BRANCH  24  27
HETATM   27  O5D NAD C 850      37.984  -8.368  58.153  1.00 23.84    -0.268 OA
BRANCH  27  28
HETATM   28  C5D NAD C 850      39.282  -8.636  57.625  1.00 22.34     0.187 C 
BRANCH  28  29
HETATM   29  C4D NAD C 850      39.220 -10.051  57.054  1.00 22.30     0.181 C 
HETATM   30  O4D NAD C 850      38.802 -10.981  58.067  1.00 23.19    -0.331 OA
HETATM   31  C1D NAD C 850      37.654 -11.695  57.579  1.00 23.40     0.239 C 
HETATM   32  C2D NAD C 850      36.978 -10.758  56.587  1.00 22.04     0.234 C 
HETATM   33  C3D NAD C 850      38.216 -10.170  55.918  1.00 22.70     0.216 C 
HETATM   34  O2D NAD C 850      36.146 -11.461  55.657  1.00 21.71    -0.216 OA
HETATM   35  O3D NAD C 850      38.731 -11.097  54.951  1.00 20.97    -0.218 OA
BRANCH  31  36
HETATM   36  N1N NAD C 850      36.781 -12.224  58.629  1.00 23.23    -0.301 N 
HETATM   37  C2N NAD C 850      36.191 -11.407  59.531  1.00 23.13     0.083 A 
HETATM   38  C3N NAD C 850      35.357 -11.933  60.526  1.00 22.92     0.077 A 
HETATM   39  C4N NAD C 850      35.161 -13.315  60.556  1.00 23.16     0.008 A 
HETATM   40  C5N NAD C 850      35.779 -14.139  59.610  1.00 22.68     0.019 A 
HETATM   41  C6N NAD C 850      36.592 -13.560  58.638  1.00 21.96     0.078 A 
BRANCH  38  42
HETATM   42  C7N NAD C 850      34.703 -11.037  61.562  1.00 22.26     0.298 C 
HETATM   43  O7N NAD C 850      33.865 -11.481  62.335  1.00 22.02    -0.264 OA
HETATM   44  N7N NAD C 850      35.064  -9.763  61.636  1.00 22.30    -0.102 N 
ENDBRANCH  38  42
ENDBRANCH  31  36
ENDBRANCH  28  29
ENDBRANCH  27  28
ENDBRANCH  24  27
ENDBRANCH  23  24
ENDBRANCH   1  23
TORSDOF 11
