MODEL 1
REMARK VINA RESULT:    -5.366      0.000      0.000
REMARK INTER + INTRA:          -5.366
REMARK INTER:                  -5.366
REMARK INTRA:                   0.000
REMARK UNBOUND:                 0.000
REMARK  0 active torsions:
REMARK  status: ('A' for Active; 'I' for Inactive)
ROOT
HETATM    1  N9  GUN C 303      41.892 113.465  56.031  1.00 50.63    -0.203 NA
HETATM    2  C8  GUN C 303      43.081 114.113  55.888  1.00 50.40     0.201 A 
HETATM    3  N7  GUN C 303      44.118 113.438  56.293  1.00 49.96    -0.216 NA
HETATM    4  C5  GUN C 303      43.581 112.249  56.760  1.00 49.58     0.178 A 
HETATM    5  C6  GUN C 303      44.233 111.078  57.247  1.00 48.96     0.316 A 
HETATM    6  O6  GUN C 303      45.439 110.852  57.363  1.00 46.13    -0.263 OA
HETATM    7  N1  GUN C 303      43.304 110.106  57.589  1.00 48.36    -0.016 NA
HETATM    8  C2  GUN C 303      41.931 110.232  57.456  1.00 48.91     0.773 A 
HETATM    9  N2  GUN C 303      41.187 109.204  57.852  1.00 47.87     0.062 N 
HETATM   10  N3  GUN C 303      41.327 111.310  56.954  1.00 49.57    -0.037 NA
HETATM   11  C4  GUN C 303      42.213 112.273  56.627  1.00 50.19     0.205 A 
ENDROOT
TORSDOF 0
ENDMDL
MODEL 2
REMARK VINA RESULT:    -5.070      0.987      3.304
REMARK INTER + INTRA:          -5.070
REMARK INTER:                  -5.070
REMARK INTRA:                   0.000
REMARK UNBOUND:                 0.000
REMARK  0 active torsions:
REMARK  status: ('A' for Active; 'I' for Inactive)
ROOT
HETATM    1  N9  GUN C 303      40.867 110.501  57.384  1.00 50.63    -0.203 NA
HETATM    2  C8  GUN C 303      41.481 109.397  57.892  1.00 50.40     0.201 A 
HETATM    3  N7  GUN C 303      42.782 109.439  57.863  1.00 49.96    -0.216 NA
HETATM    4  C5  GUN C 303      43.064 110.661  57.274  1.00 49.58     0.178 A 
HETATM    5  C6  GUN C 303      44.316 111.305  57.052  1.00 48.96     0.316 A 
HETATM    6  O6  GUN C 303      45.450 110.917  57.341  1.00 46.13    -0.263 OA
HETATM    7  N1  GUN C 303      44.133 112.540  56.448  1.00 48.36    -0.016 NA
HETATM    8  C2  GUN C 303      42.907 113.096  56.123  1.00 48.91     0.773 A 
HETATM    9  N2  GUN C 303      42.919 114.286  55.529  1.00 47.87     0.062 N 
HETATM   10  N3  GUN C 303      41.735 112.513  56.376  1.00 49.57    -0.037 NA
HETATM   11  C4  GUN C 303      41.891 111.303  56.953  1.00 50.19     0.205 A 
ENDROOT
TORSDOF 0
ENDMDL
MODEL 3
REMARK VINA RESULT:    -4.893      1.960      4.228
REMARK INTER + INTRA:          -4.893
REMARK INTER:                  -4.893
REMARK INTRA:                   0.000
REMARK UNBOUND:                 0.000
REMARK  0 active torsions:
REMARK  status: ('A' for Active; 'I' for Inactive)
ROOT
HETATM    1  N9  GUN C 303      44.268 110.449  57.059  1.00 50.63    -0.203 NA
HETATM    2  C8  GUN C 303      43.114 109.810  57.395  1.00 50.40     0.201 A 
HETATM    3  N7  GUN C 303      42.028 110.480  57.134  1.00 49.96    -0.216 NA
HETATM    4  C5  GUN C 303      42.492 111.670  56.594  1.00 49.58     0.178 A 
HETATM    5  C6  GUN C 303      41.771 112.766  56.038  1.00 48.96     0.316 A 
HETATM    6  O6  GUN C 303      40.554 112.908  55.907  1.00 46.13    -0.263 OA
HETATM    7  N1  GUN C 303      42.641 113.748  55.588  1.00 48.36    -0.016 NA
HETATM    8  C2  GUN C 303      44.023 113.676  55.641  1.00 48.91     0.773 A 
HETATM    9  N2  GUN C 303      44.704 114.721  55.179  1.00 47.87     0.062 N 
HETATM   10  N3  GUN C 303      44.696 112.627  56.117  1.00 49.57    -0.037 NA
HETATM   11  C4  GUN C 303      43.867 111.665  56.572  1.00 50.19     0.205 A 
ENDROOT
TORSDOF 0
ENDMDL
MODEL 4
REMARK VINA RESULT:    -4.861      8.040      9.759
REMARK INTER + INTRA:          -4.861
REMARK INTER:                  -4.861
REMARK INTRA:                   0.000
REMARK UNBOUND:                 0.000
REMARK  0 active torsions:
REMARK  status: ('A' for Active; 'I' for Inactive)
ROOT
HETATM    1  N9  GUN C 303      37.021 117.791  57.891  1.00 50.63    -0.203 NA
HETATM    2  C8  GUN C 303      37.625 116.611  57.580  1.00 50.40     0.201 A 
HETATM    3  N7  GUN C 303      37.739 116.380  56.304  1.00 49.96    -0.216 NA
HETATM    4  C5  GUN C 303      37.151 117.486  55.711  1.00 49.58     0.178 A 
HETATM    5  C6  GUN C 303      37.052 117.844  54.334  1.00 48.96     0.316 A 
HETATM    6  O6  GUN C 303      37.475 117.244  53.345  1.00 46.13    -0.263 OA
HETATM    7  N1  GUN C 303      36.397 119.058  54.189  1.00 48.36    -0.016 NA
HETATM    8  C2  GUN C 303      35.922 119.839  55.229  1.00 48.91     0.773 A 
HETATM    9  N2  GUN C 303      35.300 120.969  54.905  1.00 47.87     0.062 N 
HETATM   10  N3  GUN C 303      36.060 119.525  56.518  1.00 49.57    -0.037 NA
HETATM   11  C4  GUN C 303      36.684 118.341  56.682  1.00 50.19     0.205 A 
ENDROOT
TORSDOF 0
ENDMDL
MODEL 5
REMARK VINA RESULT:    -4.709      7.799      9.273
REMARK INTER + INTRA:          -4.709
REMARK INTER:                  -4.709
REMARK INTRA:                   0.000
REMARK UNBOUND:                 0.000
REMARK  0 active torsions:
REMARK  status: ('A' for Active; 'I' for Inactive)
ROOT
HETATM    1  N9  GUN C 303      37.983 115.995  56.725  1.00 50.63    -0.203 NA
HETATM    2  C8  GUN C 303      37.610 116.584  57.894  1.00 50.40     0.201 A 
HETATM    3  N7  GUN C 303      36.991 117.721  57.755  1.00 49.96    -0.216 NA
HETATM    4  C5  GUN C 303      36.961 117.919  56.383  1.00 49.58     0.178 A 
HETATM    5  C6  GUN C 303      36.338 118.948  55.619  1.00 48.96     0.316 A 
HETATM    6  O6  GUN C 303      35.673 119.909  56.009  1.00 46.13    -0.263 OA
HETATM    7  N1  GUN C 303      36.541 118.743  54.262  1.00 48.36    -0.016 NA
HETATM    8  C2  GUN C 303      37.229 117.676  53.710  1.00 48.91     0.773 A 
HETATM    9  N2  GUN C 303      37.344 117.647  52.385  1.00 47.87     0.062 N 
HETATM   10  N3  GUN C 303      37.769 116.688  54.425  1.00 49.57    -0.037 NA
HETATM   11  C4  GUN C 303      37.594 116.875  55.749  1.00 50.19     0.205 A 
ENDROOT
TORSDOF 0
ENDMDL
MODEL 6
REMARK VINA RESULT:    -4.690      7.609      8.894
REMARK INTER + INTRA:          -4.690
REMARK INTER:                  -4.690
REMARK INTRA:                   0.000
REMARK UNBOUND:                 0.000
REMARK  0 active torsions:
REMARK  status: ('A' for Active; 'I' for Inactive)
ROOT
HETATM    1  N9  GUN C 303      36.085 119.561  56.399  1.00 50.63    -0.203 NA
HETATM    2  C8  GUN C 303      35.909 120.186  55.203  1.00 50.40     0.201 A 
HETATM    3  N7  GUN C 303      36.313 119.504  54.170  1.00 49.96    -0.216 NA
HETATM    4  C5  GUN C 303      36.816 118.335  54.719  1.00 49.58     0.178 A 
HETATM    5  C6  GUN C 303      37.320 117.165  54.079  1.00 48.96     0.316 A 
HETATM    6  O6  GUN C 303      37.422 116.922  52.875  1.00 46.13    -0.263 OA
HETATM    7  N1  GUN C 303      37.698 116.216  55.018  1.00 48.36    -0.016 NA
HETATM    8  C2  GUN C 303      37.584 116.361  56.390  1.00 48.91     0.773 A 
HETATM    9  N2  GUN C 303      38.014 115.355  57.145  1.00 47.87     0.062 N 
HETATM   10  N3  GUN C 303      37.066 117.437  56.985  1.00 49.57    -0.037 NA
HETATM   11  C4  GUN C 303      36.703 118.378  56.089  1.00 50.19     0.205 A 
ENDROOT
TORSDOF 0
ENDMDL
MODEL 7
REMARK VINA RESULT:    -4.666      8.053      9.808
REMARK INTER + INTRA:          -4.666
REMARK INTER:                  -4.666
REMARK INTRA:                   0.000
REMARK UNBOUND:                 0.000
REMARK  0 active torsions:
REMARK  status: ('A' for Active; 'I' for Inactive)
ROOT
HETATM    1  N9  GUN C 303      37.809 117.456  53.463  1.00 50.63    -0.203 NA
HETATM    2  C8  GUN C 303      38.361 116.494  54.254  1.00 50.40     0.201 A 
HETATM    3  N7  GUN C 303      38.124 116.636  55.526  1.00 49.96    -0.216 NA
HETATM    4  C5  GUN C 303      37.367 117.795  55.597  1.00 49.58     0.178 A 
HETATM    5  C6  GUN C 303      36.737 118.411  56.717  1.00 48.96     0.316 A 
HETATM    6  O6  GUN C 303      36.719 118.047  57.894  1.00 46.13    -0.263 OA
HETATM    7  N1  GUN C 303      36.054 119.555  56.329  1.00 48.36    -0.016 NA
HETATM    8  C2  GUN C 303      35.965 120.030  55.031  1.00 48.91     0.773 A 
HETATM    9  N2  GUN C 303      35.282 121.155  54.842  1.00 47.87     0.062 N 
HETATM   10  N3  GUN C 303      36.515 119.424  53.978  1.00 49.57    -0.037 NA
HETATM   11  C4  GUN C 303      37.195 118.316  54.335  1.00 50.19     0.205 A 
ENDROOT
TORSDOF 0
ENDMDL
MODEL 8
REMARK VINA RESULT:    -4.645      7.853      9.305
REMARK INTER + INTRA:          -4.645
REMARK INTER:                  -4.645
REMARK INTRA:                   0.000
REMARK UNBOUND:                 0.000
REMARK  0 active torsions:
REMARK  status: ('A' for Active; 'I' for Inactive)
ROOT
HETATM    1  N9  GUN C 303      36.396 119.927  53.872  1.00 50.63    -0.203 NA
HETATM    2  C8  GUN C 303      35.707 120.552  54.866  1.00 50.40     0.201 A 
HETATM    3  N7  GUN C 303      35.756 119.950  56.020  1.00 49.96    -0.216 NA
HETATM    4  C5  GUN C 303      36.526 118.824  55.777  1.00 49.58     0.178 A 
HETATM    5  C6  GUN C 303      37.000 117.826  56.677  1.00 48.96     0.316 A 
HETATM    6  O6  GUN C 303      36.832 117.736  57.894  1.00 46.13    -0.263 OA
HETATM    7  N1  GUN C 303      37.764 116.882  56.006  1.00 48.36    -0.016 NA
HETATM    8  C2  GUN C 303      38.058 116.908  54.653  1.00 48.91     0.773 A 
HETATM    9  N2  GUN C 303      38.792 115.910  54.172  1.00 47.87     0.062 N 
HETATM   10  N3  GUN C 303      37.654 117.871  53.822  1.00 49.57    -0.037 NA
HETATM   11  C4  GUN C 303      36.898 118.792  54.453  1.00 50.19     0.205 A 
ENDROOT
TORSDOF 0
ENDMDL
MODEL 9
REMARK VINA RESULT:    -4.581      7.505      8.595
REMARK INTER + INTRA:          -4.581
REMARK INTER:                  -4.581
REMARK INTRA:                   0.000
REMARK UNBOUND:                 0.000
REMARK  0 active torsions:
REMARK  status: ('A' for Active; 'I' for Inactive)
ROOT
HETATM    1  N9  GUN C 303      37.892 116.851  53.443  1.00 50.63    -0.203 NA
HETATM    2  C8  GUN C 303      37.399 118.020  52.947  1.00 50.40     0.201 A 
HETATM    3  N7  GUN C 303      36.863 118.803  53.838  1.00 49.96    -0.216 NA
HETATM    4  C5  GUN C 303      36.992 118.097  55.024  1.00 49.58     0.178 A 
HETATM    5  C6  GUN C 303      36.668 118.479  56.358  1.00 48.96     0.316 A 
HETATM    6  O6  GUN C 303      36.195 119.541  56.768  1.00 46.13    -0.263 OA
HETATM    7  N1  GUN C 303      36.986 117.465  57.250  1.00 48.36    -0.016 NA
HETATM    8  C2  GUN C 303      37.564 116.254  56.910  1.00 48.91     0.773 A 
HETATM    9  N2  GUN C 303      37.783 115.388  57.894  1.00 47.87     0.062 N 
HETATM   10  N3  GUN C 303      37.911 115.918  55.666  1.00 49.57    -0.037 NA
HETATM   11  C4  GUN C 303      37.598 116.886  54.781  1.00 50.19     0.205 A 
ENDROOT
TORSDOF 0
ENDMDL
