REMARK  0 active torsions:
REMARK  status: ('A' for Active; 'I' for Inactive)
ROOT
HETATM    1  N9  GUN C 303      42.535 115.920  53.409  1.00 50.63    -0.203 NA
HETATM    2  C8  GUN C 303      43.460 114.933  53.253  1.00 50.40     0.201 A 
HETATM    3  N7  GUN C 303      43.408 114.318  52.107  1.00 49.96    -0.216 NA
HETATM    4  C5  GUN C 303      42.354 114.930  51.447  1.00 49.58     0.178 A 
HETATM    5  C6  GUN C 303      41.873 114.744  50.118  1.00 48.96     0.316 A 
HETATM    6  O6  GUN C 303      42.292 113.988  49.240  1.00 46.13    -0.263 OA
HETATM    7  N1  GUN C 303      40.803 115.589  49.861  1.00 48.36    -0.016 NA
HETATM    8  C2  GUN C 303      40.280 116.510  50.753  1.00 48.91     0.773 A 
HETATM    9  N2  GUN C 303      39.238 117.227  50.344  1.00 47.87     0.062 N 
HETATM   10  N3  GUN C 303      40.764 116.716  51.979  1.00 49.57    -0.037 NA
HETATM   11  C4  GUN C 303      41.798 115.895  52.254  1.00 50.19     0.205 A 
ENDROOT
TORSDOF 0
