MODEL 1
REMARK VINA RESULT:    -5.696      0.000      0.000
REMARK INTER + INTRA:           2.204
REMARK INTER:                 -11.690
REMARK INTRA:                  13.895
REMARK UNBOUND:                13.895
REMARK  Name = /tmp/MDC_1oib.pdb
REMARK  22 active torsions:
REMARK  status: ('A' for Active; 'I' for Inactive)
REMARK    1  A    between atoms: C1_1  and  C2_4
REMARK    2  A    between atoms: C1_2  and  C5_11
REMARK    3  A    between atoms: C2_3  and  C2_4
REMARK    4  A    between atoms: C2_3  and  C3_6
REMARK    5  A    between atoms: C2_3  and  N4_10
REMARK    6  A    between atoms: C3_5  and  O3_7
REMARK    7  A    between atoms: C3_5  and  N4_10
REMARK    8  A    between atoms: C3_5  and  C5_12
REMARK    9  A    between atoms: C3_6  and  O3_8
REMARK   10  A    between atoms: O3_7  and  C6_16
REMARK   11  A    between atoms: N4_9  and  C5_12
REMARK   12  A    between atoms: N4_9  and  O5_14
REMARK   13  A    between atoms: C5_11  and  O5_13
REMARK   14  A    between atoms: O5_14  and  C6_15
REMARK   15  A    between atoms: C6_15  and  C7_17
REMARK   16  A    between atoms: C7_17  and  N8_18
REMARK   17  A    between atoms: C9_19  and  C13_24
REMARK   18  A    between atoms: C17_30  and  N17_31
REMARK   19  A    between atoms: N17_31  and  C19_33
REMARK   20  A    between atoms: N17_31  and  C21_35
REMARK   21  A    between atoms: C19_33  and  C20_34
REMARK   22  A    between atoms: C21_35  and  C22_36
REMARK                            x       y       z     vdW  Elec       q    Type
REMARK                         _______ _______ _______ _____ _____    ______ ____
ROOT
ATOM      1  C7  MDC A 323       9.763  50.107  28.121  0.00  0.00    +0.150 C 
ENDROOT
BRANCH   1   2
ATOM      2  N8  MDC A 323      10.294  48.827  27.598  0.00  0.00    -0.199 N 
ATOM      3  C9  MDC A 323       9.615  48.203  26.443  0.00  0.00    +0.271 C 
ATOM      4  O9  MDC A 323       8.847  48.959  25.838  0.00  0.00    -0.268 OA
ATOM      5  H   MDC A 323      11.080  48.402  28.011  0.00  0.00    +0.000 HD
BRANCH   3   9
ATOM      6  O11 MDC A 323      11.169  44.766  25.030  0.00  0.00    -0.421 OA
ATOM      7  C12 MDC A 323      11.103  46.070  25.589  0.00  0.00    +0.350 A 
ATOM      8  O12 MDC A 323      12.183  46.582  25.849  0.00  0.00    -0.244 OA
ATOM      9  C13 MDC A 323       9.773  46.791  25.861  0.00  0.00    +0.131 A 
ATOM     10  C14 MDC A 323       8.640  46.148  25.531  0.00  0.00    +0.014 A 
ATOM     11  C24 MDC A 323       8.625  44.745  24.924  0.00  0.00    +0.035 A 
ATOM     12  C28 MDC A 323       9.986  44.078  24.693  0.00  0.00    +0.150 A 
ATOM     13  C15 MDC A 323       7.508  44.092  24.596  0.00  0.00    +0.004 A 
ATOM     14  C16 MDC A 323       7.590  42.677  23.990  0.00  0.00    +0.015 A 
ATOM     15  C17 MDC A 323       8.774  42.066  23.771  0.00  0.00    +0.051 A 
ATOM     16  C18 MDC A 323      10.054  42.843  24.163  0.00  0.00    +0.052 A 
BRANCH  15  17
ATOM     17  N17 MDC A 323       8.877  40.710  23.190  0.00  0.00    -0.307 N 
BRANCH  17  18
ATOM     18  C21 MDC A 323       7.911  40.166  22.224  0.00  0.00    +0.091 C 
ATOM     19  C22 MDC A 323       7.860  40.796  20.876  0.00  0.00    +0.023 C 
ENDBRANCH  17  18
BRANCH  17  20
ATOM     20  C19 MDC A 323       9.887  39.713  23.684  0.00  0.00    +0.091 C 
ATOM     21  C20 MDC A 323       9.082  38.781  24.636  0.00  0.00    +0.023 C 
ENDBRANCH  17  20
ENDBRANCH  15  17
ENDBRANCH   3   9
ENDBRANCH   1   2
BRANCH   1  22
ATOM     22  C6  MDC A 323      11.006  50.602  28.318  0.00  0.00    +0.192 C 
BRANCH  22  23
ATOM     23  O5  MDC A 323      11.369  50.446  28.942  0.00  0.00    -0.264 OA
BRANCH  23  24
ATOM     24  N4  MDC A 323      11.951  50.342  29.433  0.00  0.00    -0.079 NA
ATOM     25  H   MDC A 323      11.380  50.550  30.252  0.00  0.00    +0.000 HD
BRANCH  24  26
ATOM     26  C5  MDC A 323      12.333  50.347  29.664  0.00  0.00    +0.169 C 
BRANCH  26  27
ATOM     27  C3  MDC A 323      12.326  49.554  30.496  0.00  0.00    +0.210 C 
BRANCH  27  28
ATOM     28  O3  MDC A 323      11.951  49.394  31.652  0.00  0.00    -0.335 OA
ATOM     29  C6  MDC A 323      11.443  49.519  31.729  0.00  0.00    +0.176 C 
ENDBRANCH  27  28
BRANCH  27  30
ATOM     30  N4  MDC A 323      12.851  49.514  30.659  0.00  0.00    -0.188 NA
ATOM     31  H   MDC A 323      13.414  50.182  30.133  0.00  0.00    +0.000 HD
BRANCH  30  32
ATOM     32  C2  MDC A 323      13.300  48.370  30.471  0.00  0.00    +0.121 C 
BRANCH  32  33
ATOM     33  C3  MDC A 323      13.789  48.508  30.555  0.00  0.00    +0.200 C 
BRANCH  33  34
ATOM     34  O3  MDC A 323      14.745  48.850  31.212  0.00  0.00    -0.219 OA
ATOM     35  H   MDC A 323      15.542  48.825  30.660  0.00  0.00    +0.000 HD
ENDBRANCH  33  34
ENDBRANCH  32  33
BRANCH  32  36
ATOM     36  C2  MDC A 323      13.345  47.507  29.457  0.00  0.00    +0.096 C 
BRANCH  36  37
ATOM     37  C1  MDC A 323      12.987  46.950  29.901  0.00  0.00    -0.087 C 
ATOM     38  C1  MDC A 323      12.659  46.204  30.087  0.00  0.00    -0.055 C 
BRANCH  38  39
ATOM     39  C5  MDC A 323      12.159  45.709  30.195  0.00  0.00    +0.258 C 
BRANCH  39  40
ATOM     40  O5  MDC A 323      12.579  44.559  30.169  0.00  0.00    -0.205 OA
ATOM     41  H   MDC A 323      12.405  44.172  29.296  0.00  0.00    +0.000 HD
ENDBRANCH  39  40
ENDBRANCH  38  39
ENDBRANCH  36  37
ENDBRANCH  32  36
ENDBRANCH  30  32
ENDBRANCH  27  30
ENDBRANCH  26  27
ENDBRANCH  24  26
ENDBRANCH  23  24
ENDBRANCH  22  23
ENDBRANCH   1  22
TORSDOF 19
ENDMDL
MODEL 2
REMARK VINA RESULT:    -5.564      1.465      3.621
REMARK INTER + INTRA:           2.476
REMARK INTER:                 -10.917
REMARK INTRA:                  13.393
REMARK UNBOUND:                13.895
REMARK  Name = /tmp/MDC_1oib.pdb
REMARK  22 active torsions:
REMARK  status: ('A' for Active; 'I' for Inactive)
REMARK    1  A    between atoms: C1_1  and  C2_4
REMARK    2  A    between atoms: C1_2  and  C5_11
REMARK    3  A    between atoms: C2_3  and  C2_4
REMARK    4  A    between atoms: C2_3  and  C3_6
REMARK    5  A    between atoms: C2_3  and  N4_10
REMARK    6  A    between atoms: C3_5  and  O3_7
REMARK    7  A    between atoms: C3_5  and  N4_10
REMARK    8  A    between atoms: C3_5  and  C5_12
REMARK    9  A    between atoms: C3_6  and  O3_8
REMARK   10  A    between atoms: O3_7  and  C6_16
REMARK   11  A    between atoms: N4_9  and  C5_12
REMARK   12  A    between atoms: N4_9  and  O5_14
REMARK   13  A    between atoms: C5_11  and  O5_13
REMARK   14  A    between atoms: O5_14  and  C6_15
REMARK   15  A    between atoms: C6_15  and  C7_17
REMARK   16  A    between atoms: C7_17  and  N8_18
REMARK   17  A    between atoms: C9_19  and  C13_24
REMARK   18  A    between atoms: C17_30  and  N17_31
REMARK   19  A    between atoms: N17_31  and  C19_33
REMARK   20  A    between atoms: N17_31  and  C21_35
REMARK   21  A    between atoms: C19_33  and  C20_34
REMARK   22  A    between atoms: C21_35  and  C22_36
REMARK                            x       y       z     vdW  Elec       q    Type
REMARK                         _______ _______ _______ _____ _____    ______ ____
ROOT
ATOM      1  C7  MDC A 323      13.296  47.996  30.400  0.00  0.00    +0.150 C 
ENDROOT
BRANCH   1   2
ATOM      2  N8  MDC A 323      12.968  47.623  29.005  0.00  0.00    -0.199 N 
ATOM      3  C9  MDC A 323      11.838  46.699  28.771  0.00  0.00    +0.271 C 
ATOM      4  O9  MDC A 323      11.089  46.559  29.744  0.00  0.00    -0.268 OA
ATOM      5  H   MDC A 323      13.491  47.981  28.252  0.00  0.00    +0.000 HD
BRANCH   3   9
ATOM      6  O11 MDC A 323      11.628  45.409  24.961  0.00  0.00    -0.421 OA
ATOM      7  C12 MDC A 323      12.070  46.127  26.105  0.00  0.00    +0.350 A 
ATOM      8  O12 MDC A 323      13.000  46.896  25.910  0.00  0.00    -0.244 OA
ATOM      9  C13 MDC A 323      11.435  45.950  27.493  0.00  0.00    +0.131 A 
ATOM     10  C14 MDC A 323      10.410  45.088  27.602  0.00  0.00    +0.014 A 
ATOM     11  C24 MDC A 323       9.874  44.278  26.421  0.00  0.00    +0.035 A 
ATOM     12  C28 MDC A 323      10.563  44.492  25.067  0.00  0.00    +0.150 A 
ATOM     13  C15 MDC A 323       8.860  43.415  26.514  0.00  0.00    +0.004 A 
ATOM     14  C16 MDC A 323       8.388  42.640  25.268  0.00  0.00    +0.015 A 
ATOM     15  C17 MDC A 323       8.973  42.810  24.062  0.00  0.00    +0.051 A 
ATOM     16  C18 MDC A 323      10.148  43.815  23.981  0.00  0.00    +0.052 A 
BRANCH  15  17
ATOM     17  N17 MDC A 323       8.537  42.078  22.853  0.00  0.00    -0.307 N 
BRANCH  17  18
ATOM     18  C21 MDC A 323       8.476  40.612  22.771  0.00  0.00    +0.091 C 
ATOM     19  C22 MDC A 323       9.544  39.840  23.465  0.00  0.00    +0.023 C 
ENDBRANCH  17  18
BRANCH  17  20
ATOM     20  C19 MDC A 323       8.291  42.782  21.549  0.00  0.00    +0.091 C 
ATOM     21  C20 MDC A 323       8.121  41.635  20.512  0.00  0.00    +0.023 C 
ENDBRANCH  17  20
ENDBRANCH  15  17
ENDBRANCH   3   9
ENDBRANCH   1   2
BRANCH   1  22
ATOM     22  C6  MDC A 323      13.255  49.317  30.111  0.00  0.00    +0.192 C 
BRANCH  22  23
ATOM     23  O5  MDC A 323      12.607  49.671  30.105  0.00  0.00    -0.264 OA
BRANCH  23  24
ATOM     24  N4  MDC A 323      12.099  50.248  30.100  0.00  0.00    -0.079 NA
ATOM     25  H   MDC A 323      12.822  50.968  30.111  0.00  0.00    +0.000 HD
BRANCH  24  26
ATOM     26  C5  MDC A 323      11.769  50.540  30.173  0.00  0.00    +0.169 C 
BRANCH  26  27
ATOM     27  C3  MDC A 323      11.413  51.022  29.194  0.00  0.00    +0.210 C 
BRANCH  27  28
ATOM     28  O3  MDC A 323      11.619  52.003  28.487  0.00  0.00    -0.335 OA
ATOM     29  C6  MDC A 323      11.991  52.327  28.678  0.00  0.00    +0.176 C 
ENDBRANCH  27  28
BRANCH  27  30
ATOM     30  N4  MDC A 323      10.904  51.205  29.301  0.00  0.00    -0.188 NA
ATOM     31  H   MDC A 323      10.667  50.978  30.267  0.00  0.00    +0.000 HD
BRANCH  30  32
ATOM     32  C2  MDC A 323      10.064  50.685  28.546  0.00  0.00    +0.121 C 
BRANCH  32  33
ATOM     33  C3  MDC A 323       9.685  51.003  28.688  0.00  0.00    +0.200 C 
BRANCH  33  34
ATOM     34  O3  MDC A 323       8.749  51.752  28.523  0.00  0.00    -0.219 OA
ATOM     35  H   MDC A 323       9.037  52.666  28.673  0.00  0.00    +0.000 HD
ENDBRANCH  33  34
ENDBRANCH  32  33
BRANCH  32  36
ATOM     36  C2  MDC A 323       9.493  49.488  28.419  0.00  0.00    +0.096 C 
BRANCH  36  37
ATOM     37  C1  MDC A 323       9.724  49.447  27.656  0.00  0.00    -0.087 C 
ATOM     38  C1  MDC A 323       9.760  49.152  26.876  0.00  0.00    -0.055 C 
BRANCH  38  39
ATOM     39  C5  MDC A 323      10.013  48.800  26.312  0.00  0.00    +0.258 C 
BRANCH  39  40
ATOM     40  O5  MDC A 323       9.537  49.156  25.242  0.00  0.00    -0.205 OA
ATOM     41  H   MDC A 323       8.785  49.748  25.403  0.00  0.00    +0.000 HD
ENDBRANCH  39  40
ENDBRANCH  38  39
ENDBRANCH  36  37
ENDBRANCH  32  36
ENDBRANCH  30  32
ENDBRANCH  27  30
ENDBRANCH  26  27
ENDBRANCH  24  26
ENDBRANCH  23  24
ENDBRANCH  22  23
ENDBRANCH   1  22
TORSDOF 19
ENDMDL
MODEL 3
REMARK VINA RESULT:    -5.563      6.182      9.385
REMARK INTER + INTRA:           2.477
REMARK INTER:                 -10.297
REMARK INTRA:                  12.775
REMARK UNBOUND:                13.895
REMARK  Name = /tmp/MDC_1oib.pdb
REMARK  22 active torsions:
REMARK  status: ('A' for Active; 'I' for Inactive)
REMARK    1  A    between atoms: C1_1  and  C2_4
REMARK    2  A    between atoms: C1_2  and  C5_11
REMARK    3  A    between atoms: C2_3  and  C2_4
REMARK    4  A    between atoms: C2_3  and  C3_6
REMARK    5  A    between atoms: C2_3  and  N4_10
REMARK    6  A    between atoms: C3_5  and  O3_7
REMARK    7  A    between atoms: C3_5  and  N4_10
REMARK    8  A    between atoms: C3_5  and  C5_12
REMARK    9  A    between atoms: C3_6  and  O3_8
REMARK   10  A    between atoms: O3_7  and  C6_16
REMARK   11  A    between atoms: N4_9  and  C5_12
REMARK   12  A    between atoms: N4_9  and  O5_14
REMARK   13  A    between atoms: C5_11  and  O5_13
REMARK   14  A    between atoms: O5_14  and  C6_15
REMARK   15  A    between atoms: C6_15  and  C7_17
REMARK   16  A    between atoms: C7_17  and  N8_18
REMARK   17  A    between atoms: C9_19  and  C13_24
REMARK   18  A    between atoms: C17_30  and  N17_31
REMARK   19  A    between atoms: N17_31  and  C19_33
REMARK   20  A    between atoms: N17_31  and  C21_35
REMARK   21  A    between atoms: C19_33  and  C20_34
REMARK   22  A    between atoms: C21_35  and  C22_36
REMARK                            x       y       z     vdW  Elec       q    Type
REMARK                         _______ _______ _______ _____ _____    ______ ____
ROOT
ATOM      1  C7  MDC A 323       6.899  40.928  20.838  0.00  0.00    +0.150 C 
ENDROOT
BRANCH   1   2
ATOM      2  N8  MDC A 323       7.486  39.739  21.497  0.00  0.00    -0.199 N 
ATOM      3  C9  MDC A 323       6.928  39.307  22.797  0.00  0.00    +0.271 C 
ATOM      4  O9  MDC A 323       5.830  39.806  23.067  0.00  0.00    -0.268 OA
ATOM      5  H   MDC A 323       8.231  39.248  21.080  0.00  0.00    +0.000 HD
BRANCH   3   9
ATOM      6  O11 MDC A 323       7.453  36.037  25.088  0.00  0.00    -0.421 OA
ATOM      7  C12 MDC A 323       6.893  36.911  24.118  0.00  0.00    +0.350 A 
ATOM      8  O12 MDC A 323       5.908  36.481  23.535  0.00  0.00    -0.244 OA
ATOM      9  C13 MDC A 323       7.482  38.297  23.812  0.00  0.00    +0.131 A 
ATOM     10  C14 MDC A 323       8.560  38.683  24.515  0.00  0.00    +0.014 A 
ATOM     11  C24 MDC A 323       9.222  37.803  25.576  0.00  0.00    +0.035 A 
ATOM     12  C28 MDC A 323       8.592  36.426  25.821  0.00  0.00    +0.150 A 
ATOM     13  C15 MDC A 323      10.295  38.171  26.278  0.00  0.00    +0.004 A 
ATOM     14  C16 MDC A 323      10.896  37.215  27.328  0.00  0.00    +0.015 A 
ATOM     15  C17 MDC A 323      10.361  35.999  27.569  0.00  0.00    +0.051 A 
ATOM     16  C18 MDC A 323       9.118  35.595  26.739  0.00  0.00    +0.052 A 
BRANCH  15  17
ATOM     17  N17 MDC A 323      10.919  35.065  28.572  0.00  0.00    -0.307 N 
BRANCH  17  18
ATOM     18  C21 MDC A 323      12.181  35.304  29.287  0.00  0.00    +0.091 C 
ATOM     19  C22 MDC A 323      12.095  35.886  30.655  0.00  0.00    +0.023 C 
ENDBRANCH  17  18
BRANCH  17  20
ATOM     20  C19 MDC A 323      10.323  33.707  28.805  0.00  0.00    +0.091 C 
ATOM     21  C20 MDC A 323      11.449  32.712  28.402  0.00  0.00    +0.023 C 
ENDBRANCH  17  20
ENDBRANCH  15  17
ENDBRANCH   3   9
ENDBRANCH   1   2
BRANCH   1  22
ATOM     22  C6  MDC A 323       8.103  41.538  20.749  0.00  0.00    +0.192 C 
BRANCH  22  23
ATOM     23  O5  MDC A 323       8.274  42.082  21.219  0.00  0.00    -0.264 OA
BRANCH  23  24
ATOM     24  N4  MDC A 323       8.633  42.693  21.518  0.00  0.00    -0.079 NA
ATOM     25  H   MDC A 323       7.764  43.202  21.683  0.00  0.00    +0.000 HD
BRANCH  24  26
ATOM     26  C5  MDC A 323       8.890  43.046  21.610  0.00  0.00    +0.169 C 
BRANCH  26  27
ATOM     27  C3  MDC A 323       8.695  43.437  22.672  0.00  0.00    +0.210 C 
BRANCH  27  28
ATOM     28  O3  MDC A 323       7.954  44.198  23.284  0.00  0.00    -0.335 OA
ATOM     29  C6  MDC A 323       7.547  44.375  22.995  0.00  0.00    +0.176 C 
ENDBRANCH  27  28
BRANCH  27  30
ATOM     30  N4  MDC A 323       9.124  43.763  22.785  0.00  0.00    -0.188 NA
ATOM     31  H   MDC A 323       9.758  43.767  21.986  0.00  0.00    +0.000 HD
BRANCH  30  32
ATOM     32  C2  MDC A 323       9.744  43.370  23.789  0.00  0.00    +0.121 C 
BRANCH  32  33
ATOM     33  C3  MDC A 323      10.151  43.674  23.704  0.00  0.00    +0.200 C 
BRANCH  33  34
ATOM     34  O3  MDC A 323      10.869  44.633  23.871  0.00  0.00    -0.219 OA
ATOM     35  H   MDC A 323      11.766  44.332  24.080  0.00  0.00    +0.000 HD
ENDBRANCH  33  34
ENDBRANCH  32  33
BRANCH  32  36
ATOM     36  C2  MDC A 323      10.252  42.215  24.216  0.00  0.00    +0.096 C 
BRANCH  36  37
ATOM     37  C1  MDC A 323       9.854  42.282  24.904  0.00  0.00    -0.087 C 
ATOM     38  C1  MDC A 323       9.626  42.092  25.685  0.00  0.00    -0.055 C 
BRANCH  38  39
ATOM     39  C5  MDC A 323       9.229  41.826  26.213  0.00  0.00    +0.258 C 
BRANCH  39  40
ATOM     40  O5  MDC A 323       9.525  42.248  27.324  0.00  0.00    -0.205 OA
ATOM     41  H   MDC A 323       8.749  42.203  27.904  0.00  0.00    +0.000 HD
ENDBRANCH  39  40
ENDBRANCH  38  39
ENDBRANCH  36  37
ENDBRANCH  32  36
ENDBRANCH  30  32
ENDBRANCH  27  30
ENDBRANCH  26  27
ENDBRANCH  24  26
ENDBRANCH  23  24
ENDBRANCH  22  23
ENDBRANCH   1  22
TORSDOF 19
ENDMDL
MODEL 4
REMARK VINA RESULT:    -5.561      8.232     13.234
REMARK INTER + INTRA:           2.483
REMARK INTER:                 -11.698
REMARK INTRA:                  14.181
REMARK UNBOUND:                13.895
REMARK  Name = /tmp/MDC_1oib.pdb
REMARK  22 active torsions:
REMARK  status: ('A' for Active; 'I' for Inactive)
REMARK    1  A    between atoms: C1_1  and  C2_4
REMARK    2  A    between atoms: C1_2  and  C5_11
REMARK    3  A    between atoms: C2_3  and  C2_4
REMARK    4  A    between atoms: C2_3  and  C3_6
REMARK    5  A    between atoms: C2_3  and  N4_10
REMARK    6  A    between atoms: C3_5  and  O3_7
REMARK    7  A    between atoms: C3_5  and  N4_10
REMARK    8  A    between atoms: C3_5  and  C5_12
REMARK    9  A    between atoms: C3_6  and  O3_8
REMARK   10  A    between atoms: O3_7  and  C6_16
REMARK   11  A    between atoms: N4_9  and  C5_12
REMARK   12  A    between atoms: N4_9  and  O5_14
REMARK   13  A    between atoms: C5_11  and  O5_13
REMARK   14  A    between atoms: O5_14  and  C6_15
REMARK   15  A    between atoms: C6_15  and  C7_17
REMARK   16  A    between atoms: C7_17  and  N8_18
REMARK   17  A    between atoms: C9_19  and  C13_24
REMARK   18  A    between atoms: C17_30  and  N17_31
REMARK   19  A    between atoms: N17_31  and  C19_33
REMARK   20  A    between atoms: N17_31  and  C21_35
REMARK   21  A    between atoms: C19_33  and  C20_34
REMARK   22  A    between atoms: C21_35  and  C22_36
REMARK                            x       y       z     vdW  Elec       q    Type
REMARK                         _______ _______ _______ _____ _____    ______ ____
ROOT
ATOM      1  C7  MDC A 323      11.297  33.592  28.497  0.00  0.00    +0.150 C 
ENDROOT
BRANCH   1   2
ATOM      2  N8  MDC A 323      11.241  35.066  28.373  0.00  0.00    -0.199 N 
ATOM      3  C9  MDC A 323      10.466  35.649  27.257  0.00  0.00    +0.271 C 
ATOM      4  O9  MDC A 323       9.696  34.855  26.706  0.00  0.00    -0.268 OA
ATOM      5  H   MDC A 323      11.709  35.644  29.018  0.00  0.00    +0.000 HD
BRANCH   3   9
ATOM      6  O11 MDC A 323      10.978  39.627  26.888  0.00  0.00    -0.421 OA
ATOM      7  C12 MDC A 323      11.063  38.315  27.426  0.00  0.00    +0.350 A 
ATOM      8  O12 MDC A 323      11.677  38.221  28.479  0.00  0.00    -0.244 OA
ATOM      9  C13 MDC A 323      10.437  37.093  26.735  0.00  0.00    +0.131 A 
ATOM     10  C14 MDC A 323       9.773  37.301  25.586  0.00  0.00    +0.014 A 
ATOM     11  C24 MDC A 323       9.635  38.681  24.942  0.00  0.00    +0.035 A 
ATOM     12  C28 MDC A 323      10.296  39.854  25.676  0.00  0.00    +0.150 A 
ATOM     13  C15 MDC A 323       8.983  38.903  23.799  0.00  0.00    +0.004 A 
ATOM     14  C16 MDC A 323       8.897  40.331  23.223  0.00  0.00    +0.015 A 
ATOM     15  C17 MDC A 323       9.465  41.384  23.848  0.00  0.00    +0.051 A 
ATOM     16  C18 MDC A 323      10.218  41.099  25.171  0.00  0.00    +0.052 A 
BRANCH  15  17
ATOM     17  N17 MDC A 323       9.395  42.762  23.316  0.00  0.00    -0.307 N 
BRANCH  17  18
ATOM     18  C21 MDC A 323       9.722  43.955  24.109  0.00  0.00    +0.091 C 
ATOM     19  C22 MDC A 323      11.141  44.407  24.118  0.00  0.00    +0.023 C 
ENDBRANCH  17  18
BRANCH  17  20
ATOM     20  C19 MDC A 323       8.809  43.058  21.965  0.00  0.00    +0.091 C 
ATOM     21  C20 MDC A 323       7.635  44.038  22.255  0.00  0.00    +0.023 C 
ENDBRANCH  17  20
ENDBRANCH  15  17
ENDBRANCH   3   9
ENDBRANCH   1   2
BRANCH   1  22
ATOM     22  C6  MDC A 323      12.112  33.661  29.574  0.00  0.00    +0.192 C 
BRANCH  22  23
ATOM     23  O5  MDC A 323      12.411  33.044  29.848  0.00  0.00    -0.264 OA
BRANCH  23  24
ATOM     24  N4  MDC A 323      12.928  32.568  30.161  0.00  0.00    -0.079 NA
ATOM     25  H   MDC A 323      12.216  31.953  30.555  0.00  0.00    +0.000 HD
BRANCH  24  26
ATOM     26  C5  MDC A 323      13.261  32.371  30.384  0.00  0.00    +0.169 C 
BRANCH  26  27
ATOM     27  C3  MDC A 323      13.285  31.240  30.183  0.00  0.00    +0.210 C 
BRANCH  27  28
ATOM     28  O3  MDC A 323      12.928  30.179  30.682  0.00  0.00    -0.335 OA
ATOM     29  C6  MDC A 323      12.556  30.235  31.055  0.00  0.00    +0.176 C 
ENDBRANCH  27  28
BRANCH  27  30
ATOM     30  N4  MDC A 323      13.812  31.095  30.249  0.00  0.00    -0.188 NA
ATOM     31  H   MDC A 323      14.360  31.925  30.473  0.00  0.00    +0.000 HD
BRANCH  30  32
ATOM     32  C2  MDC A 323      14.272  30.574  29.217  0.00  0.00    +0.121 C 
BRANCH  32  33
ATOM     33  C3  MDC A 323      14.656  30.335  29.464  0.00  0.00    +0.200 C 
BRANCH  33  34
ATOM     34  O3  MDC A 323      15.611  29.602  29.579  0.00  0.00    -0.219 OA
ATOM     35  H   MDC A 323      16.325  29.908  28.999  0.00  0.00    +0.000 HD
ENDBRANCH  33  34
ENDBRANCH  32  33
BRANCH  32  36
ATOM     36  C2  MDC A 323      14.802  31.005  28.074  0.00  0.00    +0.096 C 
BRANCH  36  37
ATOM     37  C1  MDC A 323      14.138  30.804  27.679  0.00  0.00    -0.087 C 
ATOM     38  C1  MDC A 323      13.661  30.611  27.021  0.00  0.00    -0.055 C 
BRANCH  38  39
ATOM     39  C5  MDC A 323      13.188  30.700  26.497  0.00  0.00    +0.258 C 
BRANCH  39  40
ATOM     40  O5  MDC A 323      12.020  30.653  26.862  0.00  0.00    -0.205 OA
ATOM     41  H   MDC A 323      11.716  29.732  26.858  0.00  0.00    +0.000 HD
ENDBRANCH  39  40
ENDBRANCH  38  39
ENDBRANCH  36  37
ENDBRANCH  32  36
ENDBRANCH  30  32
ENDBRANCH  27  30
ENDBRANCH  26  27
ENDBRANCH  24  26
ENDBRANCH  23  24
ENDBRANCH  22  23
ENDBRANCH   1  22
TORSDOF 19
ENDMDL
MODEL 5
REMARK VINA RESULT:    -5.522      6.186      9.535
REMARK INTER + INTRA:           2.561
REMARK INTER:                 -10.635
REMARK INTRA:                  13.196
REMARK UNBOUND:                13.895
REMARK  Name = /tmp/MDC_1oib.pdb
REMARK  22 active torsions:
REMARK  status: ('A' for Active; 'I' for Inactive)
REMARK    1  A    between atoms: C1_1  and  C2_4
REMARK    2  A    between atoms: C1_2  and  C5_11
REMARK    3  A    between atoms: C2_3  and  C2_4
REMARK    4  A    between atoms: C2_3  and  C3_6
REMARK    5  A    between atoms: C2_3  and  N4_10
REMARK    6  A    between atoms: C3_5  and  O3_7
REMARK    7  A    between atoms: C3_5  and  N4_10
REMARK    8  A    between atoms: C3_5  and  C5_12
REMARK    9  A    between atoms: C3_6  and  O3_8
REMARK   10  A    between atoms: O3_7  and  C6_16
REMARK   11  A    between atoms: N4_9  and  C5_12
REMARK   12  A    between atoms: N4_9  and  O5_14
REMARK   13  A    between atoms: C5_11  and  O5_13
REMARK   14  A    between atoms: O5_14  and  C6_15
REMARK   15  A    between atoms: C6_15  and  C7_17
REMARK   16  A    between atoms: C7_17  and  N8_18
REMARK   17  A    between atoms: C9_19  and  C13_24
REMARK   18  A    between atoms: C17_30  and  N17_31
REMARK   19  A    between atoms: N17_31  and  C19_33
REMARK   20  A    between atoms: N17_31  and  C21_35
REMARK   21  A    between atoms: C19_33  and  C20_34
REMARK   22  A    between atoms: C21_35  and  C22_36
REMARK                            x       y       z     vdW  Elec       q    Type
REMARK                         _______ _______ _______ _____ _____    ______ ____
ROOT
ATOM      1  C7  MDC A 323       6.938  40.165  21.556  0.00  0.00    +0.150 C 
ENDROOT
BRANCH   1   2
ATOM      2  N8  MDC A 323       7.998  39.442  22.294  0.00  0.00    -0.199 N 
ATOM      3  C9  MDC A 323       7.622  38.693  23.513  0.00  0.00    +0.271 C 
ATOM      4  O9  MDC A 323       6.407  38.501  23.634  0.00  0.00    -0.268 OA
ATOM      5  H   MDC A 323       8.931  39.458  21.980  0.00  0.00    +0.000 HD
BRANCH   3   9
ATOM      6  O11 MDC A 323       9.397  36.104  26.036  0.00  0.00    -0.421 OA
ATOM      7  C12 MDC A 323       8.552  36.596  25.006  0.00  0.00    +0.350 A 
ATOM      8  O12 MDC A 323       7.855  35.755  24.456  0.00  0.00    -0.244 OA
ATOM      9  C13 MDC A 323       8.517  38.078  24.598  0.00  0.00    +0.131 A 
ATOM     10  C14 MDC A 323       9.314  38.926  25.269  0.00  0.00    +0.014 A 
ATOM     11  C24 MDC A 323      10.252  38.477  26.391  0.00  0.00    +0.035 A 
ATOM     12  C28 MDC A 323      10.248  36.983  26.737  0.00  0.00    +0.150 A 
ATOM     13  C15 MDC A 323      11.052  39.306  27.063  0.00  0.00    +0.004 A 
ATOM     14  C16 MDC A 323      11.966  38.763  28.179  0.00  0.00    +0.015 A 
ATOM     15  C17 MDC A 323      11.982  37.453  28.509  0.00  0.00    +0.051 A 
ATOM     16  C18 MDC A 323      11.046  36.511  27.712  0.00  0.00    +0.052 A 
BRANCH  15  17
ATOM     17  N17 MDC A 323      12.849  36.909  29.576  0.00  0.00    -0.307 N 
BRANCH  17  18
ATOM     18  C21 MDC A 323      12.569  35.653  30.286  0.00  0.00    +0.091 C 
ATOM     19  C22 MDC A 323      11.540  35.688  31.363  0.00  0.00    +0.023 C 
ENDBRANCH  17  18
BRANCH  17  20
ATOM     20  C19 MDC A 323      13.997  37.697  30.140  0.00  0.00    +0.091 C 
ATOM     21  C20 MDC A 323      13.351  38.599  31.231  0.00  0.00    +0.023 C 
ENDBRANCH  17  20
ENDBRANCH  15  17
ENDBRANCH   3   9
ENDBRANCH   1   2
BRANCH   1  22
ATOM     22  C6  MDC A 323       7.838  40.971  20.948  0.00  0.00    +0.192 C 
BRANCH  22  23
ATOM     23  O5  MDC A 323       8.045  41.601  21.273  0.00  0.00    -0.264 OA
BRANCH  23  24
ATOM     24  N4  MDC A 323       8.409  42.268  21.391  0.00  0.00    -0.079 NA
ATOM     25  H   MDC A 323       7.556  42.821  21.305  0.00  0.00    +0.000 HD
BRANCH  24  26
ATOM     26  C5  MDC A 323       8.674  42.627  21.387  0.00  0.00    +0.169 C 
BRANCH  26  27
ATOM     27  C3  MDC A 323       8.522  43.268  22.328  0.00  0.00    +0.210 C 
BRANCH  27  28
ATOM     28  O3  MDC A 323       7.837  44.196  22.746  0.00  0.00    -0.335 OA
ATOM     29  C6  MDC A 323       7.408  44.291  22.450  0.00  0.00    +0.176 C 
ENDBRANCH  27  28
BRANCH  27  30
ATOM     30  N4  MDC A 323       8.971  43.584  22.360  0.00  0.00    -0.188 NA
ATOM     31  H   MDC A 323       9.600  43.344  21.593  0.00  0.00    +0.000 HD
BRANCH  30  32
ATOM     32  C2  MDC A 323       9.569  43.421  23.438  0.00  0.00    +0.121 C 
BRANCH  32  33
ATOM     33  C3  MDC A 323       9.964  43.725  23.309  0.00  0.00    +0.200 C 
BRANCH  33  34
ATOM     34  O3  MDC A 323      10.699  44.682  23.395  0.00  0.00    -0.219 OA
ATOM     35  H   MDC A 323      11.605  44.380  23.556  0.00  0.00    +0.000 HD
ENDBRANCH  33  34
ENDBRANCH  32  33
BRANCH  32  36
ATOM     36  C2  MDC A 323      10.112  42.396  24.093  0.00  0.00    +0.096 C 
BRANCH  36  37
ATOM     37  C1  MDC A 323       9.724  42.602  24.759  0.00  0.00    -0.087 C 
ATOM     38  C1  MDC A 323       9.494  42.564  25.561  0.00  0.00    -0.055 C 
BRANCH  38  39
ATOM     39  C5  MDC A 323       9.091  42.413  26.128  0.00  0.00    +0.258 C 
BRANCH  39  40
ATOM     40  O5  MDC A 323       9.057  43.303  26.969  0.00  0.00    -0.205 OA
ATOM     41  H   MDC A 323       8.587  44.071  26.609  0.00  0.00    +0.000 HD
ENDBRANCH  39  40
ENDBRANCH  38  39
ENDBRANCH  36  37
ENDBRANCH  32  36
ENDBRANCH  30  32
ENDBRANCH  27  30
ENDBRANCH  26  27
ENDBRANCH  24  26
ENDBRANCH  23  24
ENDBRANCH  22  23
ENDBRANCH   1  22
TORSDOF 19
ENDMDL
MODEL 6
REMARK VINA RESULT:    -5.522      2.891     10.014
REMARK INTER + INTRA:           2.563
REMARK INTER:                 -11.548
REMARK INTRA:                  14.110
REMARK UNBOUND:                13.895
REMARK  Name = /tmp/MDC_1oib.pdb
REMARK  22 active torsions:
REMARK  status: ('A' for Active; 'I' for Inactive)
REMARK    1  A    between atoms: C1_1  and  C2_4
REMARK    2  A    between atoms: C1_2  and  C5_11
REMARK    3  A    between atoms: C2_3  and  C2_4
REMARK    4  A    between atoms: C2_3  and  C3_6
REMARK    5  A    between atoms: C2_3  and  N4_10
REMARK    6  A    between atoms: C3_5  and  O3_7
REMARK    7  A    between atoms: C3_5  and  N4_10
REMARK    8  A    between atoms: C3_5  and  C5_12
REMARK    9  A    between atoms: C3_6  and  O3_8
REMARK   10  A    between atoms: O3_7  and  C6_16
REMARK   11  A    between atoms: N4_9  and  C5_12
REMARK   12  A    between atoms: N4_9  and  O5_14
REMARK   13  A    between atoms: C5_11  and  O5_13
REMARK   14  A    between atoms: O5_14  and  C6_15
REMARK   15  A    between atoms: C6_15  and  C7_17
REMARK   16  A    between atoms: C7_17  and  N8_18
REMARK   17  A    between atoms: C9_19  and  C13_24
REMARK   18  A    between atoms: C17_30  and  N17_31
REMARK   19  A    between atoms: N17_31  and  C19_33
REMARK   20  A    between atoms: N17_31  and  C21_35
REMARK   21  A    between atoms: C19_33  and  C20_34
REMARK   22  A    between atoms: C21_35  and  C22_36
REMARK                            x       y       z     vdW  Elec       q    Type
REMARK                         _______ _______ _______ _____ _____    ______ ____
ROOT
ATOM      1  C7  MDC A 323       8.297  41.628  21.469  0.00  0.00    +0.150 C 
ENDROOT
BRANCH   1   2
ATOM      2  N8  MDC A 323       8.184  42.404  22.724  0.00  0.00    -0.199 N 
ATOM      3  C9  MDC A 323       9.153  43.494  22.967  0.00  0.00    +0.271 C 
ATOM      4  O9  MDC A 323       9.783  43.844  21.963  0.00  0.00    -0.268 OA
ATOM      5  H   MDC A 323       7.480  42.199  23.381  0.00  0.00    +0.000 HD
BRANCH   3   9
ATOM      6  O11 MDC A 323       8.766  45.319  26.537  0.00  0.00    -0.421 OA
ATOM      7  C12 MDC A 323       8.431  44.565  25.380  0.00  0.00    +0.350 A 
ATOM      8  O12 MDC A 323       7.282  44.150  25.343  0.00  0.00    -0.244 OA
ATOM      9  C13 MDC A 323       9.438  44.280  24.255  0.00  0.00    +0.131 A 
ATOM     10  C14 MDC A 323      10.675  44.789  24.385  0.00  0.00    +0.014 A 
ATOM     11  C24 MDC A 323      11.115  45.611  25.597  0.00  0.00    +0.035 A 
ATOM     12  C28 MDC A 323      10.065  45.845  26.689  0.00  0.00    +0.150 A 
ATOM     13  C15 MDC A 323      12.340  46.119  25.742  0.00  0.00    +0.004 A 
ATOM     14  C16 MDC A 323      12.695  46.935  27.001  0.00  0.00    +0.015 A 
ATOM     15  C17 MDC A 323      11.790  47.161  27.978  0.00  0.00    +0.051 A 
ATOM     16  C18 MDC A 323      10.376  46.559  27.787  0.00  0.00    +0.052 A 
BRANCH  15  17
ATOM     17  N17 MDC A 323      12.107  47.941  29.194  0.00  0.00    -0.307 N 
BRANCH  17  18
ATOM     18  C21 MDC A 323      13.268  47.668  30.053  0.00  0.00    +0.091 C 
ATOM     19  C22 MDC A 323      14.058  48.836  30.532  0.00  0.00    +0.023 C 
ENDBRANCH  17  18
BRANCH  17  20
ATOM     20  C19 MDC A 323      11.157  48.967  29.744  0.00  0.00    +0.091 C 
ATOM     21  C20 MDC A 323      11.103  50.074  28.652  0.00  0.00    +0.023 C 
ENDBRANCH  17  20
ENDBRANCH  15  17
ENDBRANCH   3   9
ENDBRANCH   1   2
BRANCH   1  22
ATOM     22  C6  MDC A 323       8.203  40.450  22.126  0.00  0.00    +0.192 C 
BRANCH  22  23
ATOM     23  O5  MDC A 323       8.774  40.208  22.529  0.00  0.00    -0.264 OA
BRANCH  23  24
ATOM     24  N4  MDC A 323       9.219  39.736  22.941  0.00  0.00    -0.079 NA
ATOM     25  H   MDC A 323       9.682  40.500  23.433  0.00  0.00    +0.000 HD
BRANCH  24  26
ATOM     26  C5  MDC A 323       9.503  39.428  23.096  0.00  0.00    +0.169 C 
BRANCH  26  27
ATOM     27  C3  MDC A 323       9.559  39.451  24.243  0.00  0.00    +0.210 C 
BRANCH  27  28
ATOM     28  O3  MDC A 323      10.035  40.115  25.157  0.00  0.00    -0.335 OA
ATOM     29  C6  MDC A 323      10.293  40.548  24.993  0.00  0.00    +0.176 C 
ENDBRANCH  27  28
BRANCH  27  30
ATOM     30  N4  MDC A 323       9.886  39.029  24.378  0.00  0.00    -0.188 NA
ATOM     31  H   MDC A 323      10.318  38.659  23.531  0.00  0.00    +0.000 HD
BRANCH  30  32
ATOM     32  C2  MDC A 323       9.246  38.120  24.936  0.00  0.00    +0.121 C 
BRANCH  32  33
ATOM     33  C3  MDC A 323       9.582  38.070  25.323  0.00  0.00    +0.200 C 
BRANCH  33  34
ATOM     34  O3  MDC A 323      10.234  37.479  26.153  0.00  0.00    -0.219 OA
ATOM     35  H   MDC A 323      11.174  37.680  26.028  0.00  0.00    +0.000 HD
ENDBRANCH  33  34
ENDBRANCH  32  33
BRANCH  32  36
ATOM     36  C2  MDC A 323       8.871  36.879  24.631  0.00  0.00    +0.096 C 
BRANCH  36  37
ATOM     37  C1  MDC A 323       8.103  37.089  24.670  0.00  0.00    -0.087 C 
ATOM     38  C1  MDC A 323       7.274  36.990  24.653  0.00  0.00    -0.055 C 
BRANCH  38  39
ATOM     39  C5  MDC A 323       6.610  37.005  24.396  0.00  0.00    +0.258 C 
BRANCH  39  40
ATOM     40  O5  MDC A 323       5.774  37.411  25.193  0.00  0.00    -0.205 OA
ATOM     41  H   MDC A 323       5.430  36.665  25.709  0.00  0.00    +0.000 HD
ENDBRANCH  39  40
ENDBRANCH  38  39
ENDBRANCH  36  37
ENDBRANCH  32  36
ENDBRANCH  30  32
ENDBRANCH  27  30
ENDBRANCH  26  27
ENDBRANCH  24  26
ENDBRANCH  23  24
ENDBRANCH  22  23
ENDBRANCH   1  22
TORSDOF 19
ENDMDL
MODEL 7
REMARK VINA RESULT:    -5.514      6.256     10.522
REMARK INTER + INTRA:           2.579
REMARK INTER:                 -11.199
REMARK INTRA:                  13.778
REMARK UNBOUND:                13.895
REMARK  Name = /tmp/MDC_1oib.pdb
REMARK  22 active torsions:
REMARK  status: ('A' for Active; 'I' for Inactive)
REMARK    1  A    between atoms: C1_1  and  C2_4
REMARK    2  A    between atoms: C1_2  and  C5_11
REMARK    3  A    between atoms: C2_3  and  C2_4
REMARK    4  A    between atoms: C2_3  and  C3_6
REMARK    5  A    between atoms: C2_3  and  N4_10
REMARK    6  A    between atoms: C3_5  and  O3_7
REMARK    7  A    between atoms: C3_5  and  N4_10
REMARK    8  A    between atoms: C3_5  and  C5_12
REMARK    9  A    between atoms: C3_6  and  O3_8
REMARK   10  A    between atoms: O3_7  and  C6_16
REMARK   11  A    between atoms: N4_9  and  C5_12
REMARK   12  A    between atoms: N4_9  and  O5_14
REMARK   13  A    between atoms: C5_11  and  O5_13
REMARK   14  A    between atoms: O5_14  and  C6_15
REMARK   15  A    between atoms: C6_15  and  C7_17
REMARK   16  A    between atoms: C7_17  and  N8_18
REMARK   17  A    between atoms: C9_19  and  C13_24
REMARK   18  A    between atoms: C17_30  and  N17_31
REMARK   19  A    between atoms: N17_31  and  C19_33
REMARK   20  A    between atoms: N17_31  and  C21_35
REMARK   21  A    between atoms: C19_33  and  C20_34
REMARK   22  A    between atoms: C21_35  and  C22_36
REMARK                            x       y       z     vdW  Elec       q    Type
REMARK                         _______ _______ _______ _____ _____    ______ ____
ROOT
ATOM      1  C7  MDC A 323      10.343  40.528  26.635  0.00  0.00    +0.150 C 
ENDROOT
BRANCH   1   2
ATOM      2  N8  MDC A 323      10.064  39.092  26.861  0.00  0.00    -0.199 N 
ATOM      3  C9  MDC A 323      11.044  38.297  27.631  0.00  0.00    +0.271 C 
ATOM      4  O9  MDC A 323      11.860  38.975  28.264  0.00  0.00    -0.268 OA
ATOM      5  H   MDC A 323       9.244  38.677  26.507  0.00  0.00    +0.000 HD
BRANCH   3   9
ATOM      6  O11 MDC A 323      10.729  34.322  27.065  0.00  0.00    -0.421 OA
ATOM      7  C12 MDC A 323      10.607  35.717  26.828  0.00  0.00    +0.350 A 
ATOM      8  O12 MDC A 323      10.042  36.022  25.788  0.00  0.00    -0.244 OA
ATOM      9  C13 MDC A 323      11.151  36.775  27.801  0.00  0.00    +0.131 A 
ATOM     10  C14 MDC A 323      11.747  36.338  28.924  0.00  0.00    +0.014 A 
ATOM     11  C24 MDC A 323      11.918  34.855  29.253  0.00  0.00    +0.035 A 
ATOM     12  C28 MDC A 323      11.365  33.853  28.232  0.00  0.00    +0.150 A 
ATOM     13  C15 MDC A 323      12.511  34.406  30.361  0.00  0.00    +0.004 A 
ATOM     14  C16 MDC A 323      12.639  32.890  30.609  0.00  0.00    +0.015 A 
ATOM     15  C17 MDC A 323      12.159  31.984  29.730  0.00  0.00    +0.051 A 
ATOM     16  C18 MDC A 323      11.477  32.530  28.452  0.00  0.00    +0.052 A 
BRANCH  15  17
ATOM     17  N17 MDC A 323      12.269  30.525  29.947  0.00  0.00    -0.307 N 
BRANCH  17  18
ATOM     18  C21 MDC A 323      13.189  29.661  29.193  0.00  0.00    +0.091 C 
ATOM     19  C22 MDC A 323      14.406  30.293  28.613  0.00  0.00    +0.023 C 
ENDBRANCH  17  18
BRANCH  17  20
ATOM     20  C19 MDC A 323      11.314  29.784  30.838  0.00  0.00    +0.091 C 
ATOM     21  C20 MDC A 323      10.120  29.417  29.911  0.00  0.00    +0.023 C 
ENDBRANCH  17  20
ENDBRANCH  15  17
ENDBRANCH   3   9
ENDBRANCH   1   2
BRANCH   1  22
ATOM     22  C6  MDC A 323      10.200  40.400  25.297  0.00  0.00    +0.192 C 
BRANCH  22  23
ATOM     23  O5  MDC A 323       9.957  40.972  24.897  0.00  0.00    -0.264 OA
BRANCH  23  24
ATOM     24  N4  MDC A 323       9.754  41.392  24.286  0.00  0.00    -0.079 NA
ATOM     25  H   MDC A 323       8.869  41.683  24.702  0.00  0.00    +0.000 HD
BRANCH  24  26
ATOM     26  C5  MDC A 323       9.651  41.556  23.884  0.00  0.00    +0.169 C 
BRANCH  26  27
ATOM     27  C3  MDC A 323       9.259  42.633  23.961  0.00  0.00    +0.210 C 
BRANCH  27  28
ATOM     28  O3  MDC A 323       8.209  43.258  24.055  0.00  0.00    -0.335 OA
ATOM     29  C6  MDC A 323       7.799  42.961  24.210  0.00  0.00    +0.176 C 
ENDBRANCH  27  28
BRANCH  27  30
ATOM     30  N4  MDC A 323       9.346  42.852  23.463  0.00  0.00    -0.188 NA
ATOM     31  H   MDC A 323       9.760  42.144  22.856  0.00  0.00    +0.000 HD
BRANCH  30  32
ATOM     32  C2  MDC A 323      10.113  43.830  23.523  0.00  0.00    +0.121 C 
BRANCH  32  33
ATOM     33  C3  MDC A 323      10.084  43.931  23.019  0.00  0.00    +0.200 C 
BRANCH  33  34
ATOM     34  O3  MDC A 323       9.743  44.537  22.029  0.00  0.00    -0.219 OA
ATOM     35  H   MDC A 323      10.426  45.184  21.794  0.00  0.00    +0.000 HD
ENDBRANCH  33  34
ENDBRANCH  32  33
BRANCH  32  36
ATOM     36  C2  MDC A 323      11.386  44.037  23.853  0.00  0.00    +0.096 C 
BRANCH  36  37
ATOM     37  C1  MDC A 323      11.173  44.622  24.352  0.00  0.00    -0.087 C 
ATOM     38  C1  MDC A 323      11.275  45.268  24.871  0.00  0.00    -0.055 C 
BRANCH  38  39
ATOM     39  C5  MDC A 323      11.325  45.622  25.486  0.00  0.00    +0.258 C 
BRANCH  39  40
ATOM     40  O5  MDC A 323      11.146  46.829  25.388  0.00  0.00    -0.205 OA
ATOM     41  H   MDC A 323      11.365  47.116  24.488  0.00  0.00    +0.000 HD
ENDBRANCH  39  40
ENDBRANCH  38  39
ENDBRANCH  36  37
ENDBRANCH  32  36
ENDBRANCH  30  32
ENDBRANCH  27  30
ENDBRANCH  26  27
ENDBRANCH  24  26
ENDBRANCH  23  24
ENDBRANCH  22  23
ENDBRANCH   1  22
TORSDOF 19
ENDMDL
MODEL 8
REMARK VINA RESULT:    -5.412      1.655      3.737
REMARK INTER + INTRA:           2.788
REMARK INTER:                  -9.797
REMARK INTRA:                  12.585
REMARK UNBOUND:                13.895
REMARK  Name = /tmp/MDC_1oib.pdb
REMARK  22 active torsions:
REMARK  status: ('A' for Active; 'I' for Inactive)
REMARK    1  A    between atoms: C1_1  and  C2_4
REMARK    2  A    between atoms: C1_2  and  C5_11
REMARK    3  A    between atoms: C2_3  and  C2_4
REMARK    4  A    between atoms: C2_3  and  C3_6
REMARK    5  A    between atoms: C2_3  and  N4_10
REMARK    6  A    between atoms: C3_5  and  O3_7
REMARK    7  A    between atoms: C3_5  and  N4_10
REMARK    8  A    between atoms: C3_5  and  C5_12
REMARK    9  A    between atoms: C3_6  and  O3_8
REMARK   10  A    between atoms: O3_7  and  C6_16
REMARK   11  A    between atoms: N4_9  and  C5_12
REMARK   12  A    between atoms: N4_9  and  O5_14
REMARK   13  A    between atoms: C5_11  and  O5_13
REMARK   14  A    between atoms: O5_14  and  C6_15
REMARK   15  A    between atoms: C6_15  and  C7_17
REMARK   16  A    between atoms: C7_17  and  N8_18
REMARK   17  A    between atoms: C9_19  and  C13_24
REMARK   18  A    between atoms: C17_30  and  N17_31
REMARK   19  A    between atoms: N17_31  and  C19_33
REMARK   20  A    between atoms: N17_31  and  C21_35
REMARK   21  A    between atoms: C19_33  and  C20_34
REMARK   22  A    between atoms: C21_35  and  C22_36
REMARK                            x       y       z     vdW  Elec       q    Type
REMARK                         _______ _______ _______ _____ _____    ______ ____
ROOT
ATOM      1  C7  MDC A 323      13.281  47.725  29.607  0.00  0.00    +0.150 C 
ENDROOT
BRANCH   1   2
ATOM      2  N8  MDC A 323      12.387  46.639  29.145  0.00  0.00    -0.199 N 
ATOM      3  C9  MDC A 323      12.144  46.496  27.694  0.00  0.00    +0.271 C 
ATOM      4  O9  MDC A 323      12.944  47.115  26.983  0.00  0.00    -0.268 OA
ATOM      5  H   MDC A 323      11.965  46.026  29.790  0.00  0.00    +0.000 HD
BRANCH   3   9
ATOM      6  O11 MDC A 323       8.893  44.284  26.823  0.00  0.00    -0.421 OA
ATOM      7  C12 MDC A 323       9.810  45.073  27.567  0.00  0.00    +0.350 A 
ATOM      8  O12 MDC A 323       9.502  45.268  28.735  0.00  0.00    -0.244 OA
ATOM      9  C13 MDC A 323      11.095  45.653  26.956  0.00  0.00    +0.131 A 
ATOM     10  C14 MDC A 323      11.350  45.373  25.667  0.00  0.00    +0.014 A 
ATOM     11  C24 MDC A 323      10.416  44.531  24.796  0.00  0.00    +0.035 A 
ATOM     12  C28 MDC A 323       9.144  43.996  25.465  0.00  0.00    +0.150 A 
ATOM     13  C15 MDC A 323      10.654  44.249  23.514  0.00  0.00    +0.004 A 
ATOM     14  C16 MDC A 323       9.653  43.392  22.713  0.00  0.00    +0.015 A 
ATOM     15  C17 MDC A 323       8.527  42.904  23.276  0.00  0.00    +0.051 A 
ATOM     16  C18 MDC A 323       8.273  43.248  24.765  0.00  0.00    +0.052 A 
BRANCH  15  17
ATOM     17  N17 MDC A 323       7.553  42.079  22.529  0.00  0.00    -0.307 N 
BRANCH  17  18
ATOM     18  C21 MDC A 323       6.852  42.546  21.324  0.00  0.00    +0.091 C 
ATOM     19  C22 MDC A 323       6.781  41.613  20.166  0.00  0.00    +0.023 C 
ENDBRANCH  17  18
BRANCH  17  20
ATOM     20  C19 MDC A 323       7.072  40.756  23.052  0.00  0.00    +0.091 C 
ATOM     21  C20 MDC A 323       8.347  39.866  23.095  0.00  0.00    +0.023 C 
ENDBRANCH  17  20
ENDBRANCH  15  17
ENDBRANCH   3   9
ENDBRANCH   1   2
BRANCH   1  22
ATOM     22  C6  MDC A 323      12.302  48.285  30.353  0.00  0.00    +0.192 C 
BRANCH  22  23
ATOM     23  O5  MDC A 323      11.927  48.865  30.092  0.00  0.00    -0.264 OA
BRANCH  23  24
ATOM     24  N4  MDC A 323      11.386  49.408  30.030  0.00  0.00    -0.079 NA
ATOM     25  H   MDC A 323      12.060  50.145  29.823  0.00  0.00    +0.000 HD
BRANCH  24  26
ATOM     26  C5  MDC A 323      11.047  49.694  30.080  0.00  0.00    +0.169 C 
BRANCH  26  27
ATOM     27  C3  MDC A 323      10.831  50.261  29.105  0.00  0.00    +0.210 C 
BRANCH  27  28
ATOM     28  O3  MDC A 323      11.159  51.278  28.503  0.00  0.00    -0.335 OA
ATOM     29  C6  MDC A 323      11.590  51.511  28.703  0.00  0.00    +0.176 C 
ENDBRANCH  27  28
BRANCH  27  30
ATOM     30  N4  MDC A 323      10.321  50.460  29.166  0.00  0.00    -0.188 NA
ATOM     31  H   MDC A 323       9.971  50.201  30.088  0.00  0.00    +0.000 HD
BRANCH  30  32
ATOM     32  C2  MDC A 323       9.549  50.011  28.300  0.00  0.00    +0.121 C 
BRANCH  32  33
ATOM     33  C3  MDC A 323       9.145  50.285  28.465  0.00  0.00    +0.200 C 
BRANCH  33  34
ATOM     34  O3  MDC A 323       8.309  51.158  28.423  0.00  0.00    -0.219 OA
ATOM     35  H   MDC A 323       7.519  50.872  28.908  0.00  0.00    +0.000 HD
ENDBRANCH  33  34
ENDBRANCH  32  33
BRANCH  32  36
ATOM     36  C2  MDC A 323       9.058  48.817  27.974  0.00  0.00    +0.096 C 
BRANCH  36  37
ATOM     37  C1  MDC A 323       9.283  48.919  27.216  0.00  0.00    -0.087 C 
ATOM     38  C1  MDC A 323       9.323  48.767  26.395  0.00  0.00    -0.055 C 
BRANCH  38  39
ATOM     39  C5  MDC A 323       9.586  48.529  25.778  0.00  0.00    +0.258 C 
BRANCH  39  40
ATOM     40  O5  MDC A 323       9.137  49.098  24.791  0.00  0.00    -0.205 OA
ATOM     41  H   MDC A 323       9.516  49.989  24.730  0.00  0.00    +0.000 HD
ENDBRANCH  39  40
ENDBRANCH  38  39
ENDBRANCH  36  37
ENDBRANCH  32  36
ENDBRANCH  30  32
ENDBRANCH  27  30
ENDBRANCH  26  27
ENDBRANCH  24  26
ENDBRANCH  23  24
ENDBRANCH  22  23
ENDBRANCH   1  22
TORSDOF 19
ENDMDL
MODEL 9
REMARK VINA RESULT:    -5.393      3.123     10.404
REMARK INTER + INTRA:           2.827
REMARK INTER:                 -10.094
REMARK INTRA:                  12.921
REMARK UNBOUND:                13.895
REMARK  Name = /tmp/MDC_1oib.pdb
REMARK  22 active torsions:
REMARK  status: ('A' for Active; 'I' for Inactive)
REMARK    1  A    between atoms: C1_1  and  C2_4
REMARK    2  A    between atoms: C1_2  and  C5_11
REMARK    3  A    between atoms: C2_3  and  C2_4
REMARK    4  A    between atoms: C2_3  and  C3_6
REMARK    5  A    between atoms: C2_3  and  N4_10
REMARK    6  A    between atoms: C3_5  and  O3_7
REMARK    7  A    between atoms: C3_5  and  N4_10
REMARK    8  A    between atoms: C3_5  and  C5_12
REMARK    9  A    between atoms: C3_6  and  O3_8
REMARK   10  A    between atoms: O3_7  and  C6_16
REMARK   11  A    between atoms: N4_9  and  C5_12
REMARK   12  A    between atoms: N4_9  and  O5_14
REMARK   13  A    between atoms: C5_11  and  O5_13
REMARK   14  A    between atoms: O5_14  and  C6_15
REMARK   15  A    between atoms: C6_15  and  C7_17
REMARK   16  A    between atoms: C7_17  and  N8_18
REMARK   17  A    between atoms: C9_19  and  C13_24
REMARK   18  A    between atoms: C17_30  and  N17_31
REMARK   19  A    between atoms: N17_31  and  C19_33
REMARK   20  A    between atoms: N17_31  and  C21_35
REMARK   21  A    between atoms: C19_33  and  C20_34
REMARK   22  A    between atoms: C21_35  and  C22_36
REMARK                            x       y       z     vdW  Elec       q    Type
REMARK                         _______ _______ _______ _____ _____    ______ ____
ROOT
ATOM      1  C7  MDC A 323       8.562  38.604  24.141  0.00  0.00    +0.150 C 
ENDROOT
BRANCH   1   2
ATOM      2  N8  MDC A 323       8.369  39.822  24.959  0.00  0.00    -0.199 N 
ATOM      3  C9  MDC A 323       9.333  40.932  24.807  0.00  0.00    +0.271 C 
ATOM      4  O9  MDC A 323      10.040  40.854  23.796  0.00  0.00    -0.268 OA
ATOM      5  H   MDC A 323       7.616  39.891  25.590  0.00  0.00    +0.000 HD
BRANCH   3   9
ATOM      6  O11 MDC A 323       9.274  43.545  27.871  0.00  0.00    -0.421 OA
ATOM      7  C12 MDC A 323       9.066  42.350  27.133  0.00  0.00    +0.350 A 
ATOM      8  O12 MDC A 323       8.490  41.457  27.737  0.00  0.00    -0.244 OA
ATOM      9  C13 MDC A 323       9.535  42.179  25.679  0.00  0.00    +0.131 A 
ATOM     10  C14 MDC A 323      10.151  43.223  25.099  0.00  0.00    +0.014 A 
ATOM     11  C24 MDC A 323      10.412  44.544  25.824  0.00  0.00    +0.035 A 
ATOM     12  C28 MDC A 323       9.931  44.642  27.276  0.00  0.00    +0.150 A 
ATOM     13  C15 MDC A 323      11.026  45.588  25.262  0.00  0.00    +0.004 A 
ATOM     14  C16 MDC A 323      11.248  46.881  26.072  0.00  0.00    +0.015 A 
ATOM     15  C17 MDC A 323      10.832  46.997  27.351  0.00  0.00    +0.051 A 
ATOM     16  C18 MDC A 323      10.125  45.771  27.980  0.00  0.00    +0.052 A 
BRANCH  15  17
ATOM     17  N17 MDC A 323      11.033  48.228  28.147  0.00  0.00    -0.307 N 
BRANCH  17  18
ATOM     18  C21 MDC A 323      11.571  48.229  29.515  0.00  0.00    +0.091 C 
ATOM     19  C22 MDC A 323      13.039  48.045  29.676  0.00  0.00    +0.023 C 
ENDBRANCH  17  18
BRANCH  17  20
ATOM     20  C19 MDC A 323      10.532  49.563  27.677  0.00  0.00    +0.091 C 
ATOM     21  C20 MDC A 323       8.992  49.498  27.887  0.00  0.00    +0.023 C 
ENDBRANCH  17  20
ENDBRANCH  15  17
ENDBRANCH   3   9
ENDBRANCH   1   2
BRANCH   1  22
ATOM     22  C6  MDC A 323       7.322  38.701  23.609  0.00  0.00    +0.192 C 
BRANCH  22  23
ATOM     23  O5  MDC A 323       7.200  39.159  23.043  0.00  0.00    -0.264 OA
BRANCH  23  24
ATOM     24  N4  MDC A 323       6.898  39.445  22.396  0.00  0.00    -0.079 NA
ATOM     25  H   MDC A 323       5.953  39.482  22.780  0.00  0.00    +0.000 HD
BRANCH  24  26
ATOM     26  C5  MDC A 323       6.762  39.535  21.981  0.00  0.00    +0.169 C 
BRANCH  26  27
ATOM     27  C3  MDC A 323       6.310  40.588  21.909  0.00  0.00    +0.210 C 
BRANCH  27  28
ATOM     28  O3  MDC A 323       5.256  41.185  22.101  0.00  0.00    -0.335 OA
ATOM     29  C6  MDC A 323       4.890  40.894  22.349  0.00  0.00    +0.176 C 
ENDBRANCH  27  28
BRANCH  27  30
ATOM     30  N4  MDC A 323       6.270  40.690  21.369  0.00  0.00    -0.188 NA
ATOM     31  H   MDC A 323       6.624  39.884  20.853  0.00  0.00    +0.000 HD
BRANCH  30  32
ATOM     32  C2  MDC A 323       6.923  41.697  21.045  0.00  0.00    +0.121 C 
BRANCH  32  33
ATOM     33  C3  MDC A 323       6.841  41.634  20.540  0.00  0.00    +0.200 C 
BRANCH  33  34
ATOM     34  O3  MDC A 323       6.372  41.889  19.455  0.00  0.00    -0.219 OA
ATOM     35  H   MDC A 323       6.799  41.339  18.781  0.00  0.00    +0.000 HD
ENDBRANCH  33  34
ENDBRANCH  32  33
BRANCH  32  36
ATOM     36  C2  MDC A 323       8.188  42.099  21.150  0.00  0.00    +0.096 C 
BRANCH  36  37
ATOM     37  C1  MDC A 323       7.958  42.755  21.541  0.00  0.00    -0.087 C 
ATOM     38  C1  MDC A 323       8.042  43.477  21.953  0.00  0.00    -0.055 C 
BRANCH  38  39
ATOM     39  C5  MDC A 323       8.072  43.924  22.506  0.00  0.00    +0.258 C 
BRANCH  39  40
ATOM     40  O5  MDC A 323       8.670  44.968  22.276  0.00  0.00    -0.205 OA
ATOM     41  H   MDC A 323       8.580  45.567  23.033  0.00  0.00    +0.000 HD
ENDBRANCH  39  40
ENDBRANCH  38  39
ENDBRANCH  36  37
ENDBRANCH  32  36
ENDBRANCH  30  32
ENDBRANCH  27  30
ENDBRANCH  26  27
ENDBRANCH  24  26
ENDBRANCH  23  24
ENDBRANCH  22  23
ENDBRANCH   1  22
TORSDOF 19
ENDMDL
